REMARK  Name = ZINC77257204
REMARK  16 active torsions:
REMARK  status: ('A' for Active; 'I' for Inactive)
REMARK    1  A    between atoms: C3_3  and  O15_48
REMARK    2  A    between atoms: C6_6  and  C7_7
REMARK    3  A    between atoms: C8_8  and  O5_20
REMARK    4  A    between atoms: C11_12  and  O4_19
REMARK    5  A    between atoms: C13_14  and  O3_18
REMARK    6  A    between atoms: O5_20  and  C16_21
REMARK    7  A    between atoms: C17_23  and  O14_47
REMARK    8  A    between atoms: C18_25  and  O13_46
REMARK    9  A    between atoms: C19_27  and  O12_45
REMARK   10  A    between atoms: C20_29  and  C21_32
REMARK   11  A    between atoms: C21_32  and  O7_33
REMARK   12  A    between atoms: O7_33  and  C22_34
REMARK   13  A    between atoms: C22_34  and  C23_36
REMARK   14  A    between atoms: C25_38  and  O11_44
REMARK   15  A    between atoms: C26_39  and  O10_43
REMARK   16  A    between atoms: C27_40  and  O9_42
REMARK                            x       y       z     vdW  Elec       q    Type
REMARK                         _______ _______ _______ _____ _____    ______ ____
ROOT
ATOM     12  C   UNL     1       1.150  -2.188  -0.000  0.00  0.00    +0.332 C 
ATOM     13  C   UNL     1       2.289  -3.176   0.268  0.00  0.00    +0.147 C 
ATOM     16  C   UNL     1       2.460  -4.087  -0.951  0.00  0.00    +0.168 C 
ATOM     19  C   UNL     1       2.719  -3.223  -2.189  0.00  0.00    +0.167 C 
ATOM     22  C   UNL     1       1.565  -2.233  -2.362  0.00  0.00    +0.193 C 
ATOM     39  O   UNL     1       1.440  -1.437  -1.181  0.00  0.00    -0.353 OA
ENDROOT
BRANCH  13  14
ATOM     14  O   UNL     1       3.501  -2.456   0.501  0.00  0.00    -0.515 OA
ATOM     15  H   UNL     1       3.490  -1.919   1.305  0.00  0.00    +0.377 HD
ENDBRANCH  13  14
BRANCH  16  17
ATOM     17  O   UNL     1       3.567  -4.966  -0.739  0.00  0.00    -0.551 OA
ATOM     18  H   UNL     1       3.471  -5.539   0.034  0.00  0.00    +0.386 HD
ENDBRANCH  16  17
BRANCH  19  20
ATOM     20  O   UNL     1       3.944  -2.506  -2.023  0.00  0.00    -0.532 OA
ATOM     21  H   UNL     1       4.719  -3.072  -1.903  0.00  0.00    +0.386 HD
ENDBRANCH  19  20
BRANCH  12  11
ATOM     11  O   UNL     1      -0.072  -2.906  -0.180  0.00  0.00    -0.306 OA
BRANCH  11  10
ATOM      9  C   UNL     1      -2.031  -2.159  -1.268  0.00  0.00    +0.192 A 
ATOM     10  C   UNL     1      -1.222  -2.179  -0.171  0.00  0.00    -0.079 A 
ATOM     40  C   UNL     1      -1.591  -1.436   0.981  0.00  0.00    +0.412 A 
ATOM     41  C   UNL     1      -2.848  -0.674   0.922  0.00  0.00    -0.263 A 
ATOM     42  C   UNL     1      -3.288   0.088   2.013  0.00  0.00    +0.222 A 
ATOM     45  C   UNL     1      -4.474   0.791   1.918  0.00  0.00    -0.054 A 
ATOM     46  C   UNL     1      -5.224   0.741   0.747  0.00  0.00    +0.196 A 
ATOM     49  C   UNL     1      -4.795  -0.010  -0.335  0.00  0.00    -0.022 A 
ATOM     50  C   UNL     1      -3.607  -0.722  -0.260  0.00  0.00    +0.182 A 
ATOM     51  O   UNL     1      -0.892  -1.430   1.982  0.00  0.00    -0.447 OA
ATOM     52  O   UNL     1      -3.174  -1.453  -1.308  0.00  0.00    -0.199 OA
BRANCH   9   8
ATOM      1  C   UNL     1      -1.205  -4.259  -2.318  0.00  0.00    +0.088 A 
ATOM      2  C   UNL     1      -0.836  -4.981  -3.432  0.00  0.00    -0.015 A 
ATOM      3  C   UNL     1      -0.888  -4.395  -4.691  0.00  0.00    +0.138 A 
ATOM      6  C   UNL     1      -1.313  -3.080  -4.833  0.00  0.00    -0.014 A 
ATOM      7  C   UNL     1      -1.685  -2.351  -3.725  0.00  0.00    +0.087 A 
ATOM      8  C   UNL     1      -1.634  -2.935  -2.457  0.00  0.00    -0.081 A 
BRANCH   3   4
ATOM      4  O   UNL     1      -0.522  -5.111  -5.786  0.00  0.00    -0.496 OA
ATOM      5  H   UNL     1      -1.249  -5.597  -6.198  0.00  0.00    +0.399 HD
ENDBRANCH   3   4
ENDBRANCH   9   8
BRANCH  42  43
ATOM     43  O   UNL     1      -2.555   0.134   3.154  0.00  0.00    -0.472 OA
ATOM     44  H   UNL     1      -1.903   0.848   3.174  0.00  0.00    +0.403 HD
ENDBRANCH  42  43
BRANCH  46  47
ATOM     47  O   UNL     1      -6.388   1.435   0.665  0.00  0.00    -0.486 OA
ATOM     48  H   UNL     1      -6.286   2.336   0.330  0.00  0.00    +0.404 HD
ENDBRANCH  46  47
ENDBRANCH  11  10
ENDBRANCH  12  11
BRANCH  22  23
ATOM     23  C   UNL     1       1.845  -1.326  -3.562  0.00  0.00    +0.261 C 
BRANCH  23  24
ATOM     24  O   UNL     1       0.717  -0.481  -3.794  0.00  0.00    -0.338 OA
BRANCH  24  25
ATOM     25  C   UNL     1       0.802   0.385  -4.823  0.00  0.00    +0.510 C 
ATOM     38  O   UNL     1       1.808   0.421  -5.505  0.00  0.00    -0.492 OA
BRANCH  25  26
ATOM     26  C   UNL     1      -0.324   1.289  -5.122  0.00  0.00    -0.098 A 
ATOM     27  C   UNL     1      -1.479   1.252  -4.336  0.00  0.00    +0.061 A 
ATOM     28  C   UNL     1      -2.533   2.100  -4.619  0.00  0.00    +0.088 A 
ATOM     31  C   UNL     1      -2.445   2.990  -5.686  0.00  0.00    +0.094 A 
ATOM     34  C   UNL     1      -1.296   3.028  -6.472  0.00  0.00    +0.090 A 
ATOM     37  C   UNL     1      -0.236   2.187  -6.189  0.00  0.00    +0.081 A 
BRANCH  28  29
ATOM     29  O   UNL     1      -3.657   2.065  -3.854  0.00  0.00    -0.476 OA
ATOM     30  H   UNL     1      -3.635   2.665  -3.095  0.00  0.00    +0.390 HD
ENDBRANCH  28  29
BRANCH  31  32
ATOM     32  O   UNL     1      -3.483   3.822  -5.962  0.00  0.00    -0.472 OA
ATOM     33  H   UNL     1      -3.438   4.673  -5.505  0.00  0.00    +0.391 HD
ENDBRANCH  31  32
BRANCH  34  35
ATOM     35  O   UNL     1      -1.214   3.898  -7.514  0.00  0.00    -0.478 OA
ATOM     36  H   UNL     1      -0.844   4.760  -7.279  0.00  0.00    +0.394 HD
ENDBRANCH  34  35
ENDBRANCH  25  26
ENDBRANCH  24  25
ENDBRANCH  23  24
ENDBRANCH  22  23
TORSDOF 16
