REMARK  Name = ZINC95485883
REMARK  3 active torsions:
REMARK  status: ('A' for Active; 'I' for Inactive)
REMARK    1  A    between atoms: C1_1  and  O1_2
REMARK    2  A    between atoms: O1_2  and  C2_3
REMARK    3  A    between atoms: C14_17  and  O4_18
REMARK                            x       y       z     vdW  Elec       q    Type
REMARK                         _______ _______ _______ _____ _____    ______ ____
ROOT
ATOM      3  C   UNL     1      -1.199  -0.637   0.010  0.00  0.00    +0.197 A 
ATOM      4  C   UNL     1      -2.373   0.113   0.020  0.00  0.00    -0.094 A 
ATOM      5  C   UNL     1      -3.587  -0.512   0.023  0.00  0.00    +0.161 A 
ATOM      6  C   UNL     1      -3.648  -1.906   0.018  0.00  0.00    -0.268 A 
ATOM      7  C   UNL     1      -2.471  -2.674   0.017  0.00  0.00    +0.201 A 
ATOM      8  O   UNL     1      -2.517  -4.021   0.032  0.00  0.00    -0.217 OA
ATOM      9  C   UNL     1      -3.644  -4.699  -0.266  0.00  0.00    +0.130 A 
ATOM     10  C   UNL     1      -4.891  -4.059  -0.289  0.00  0.00    -0.211 A 
ATOM     11  C   UNL     1      -6.049  -4.774  -0.591  0.00  0.00    +0.108 A 
ATOM     12  C   UNL     1      -5.965  -6.120  -0.874  0.00  0.00    +0.011 A 
ATOM     13  C   UNL     1      -4.735  -6.761  -0.857  0.00  0.00    +0.067 A 
ATOM     14  C   UNL     1      -3.580  -6.063  -0.557  0.00  0.00    +0.086 A 
ATOM     17  C   UNL     1      -4.946  -2.611   0.011  0.00  0.00    +0.444 A 
ATOM     18  O   UNL     1      -5.995  -2.037   0.237  0.00  0.00    -0.446 OA
ATOM     19  C   UNL     1      -1.244  -2.021   0.003  0.00  0.00    -0.032 A 
ENDROOT
BRANCH   3   2
ATOM      1  C   UNL     1      -0.017   1.425   0.010  0.00  0.00    +0.255 C 
ATOM      2  O   UNL     1       0.002  -0.004   0.002  0.00  0.00    -0.306 OA
ENDBRANCH   3   2
BRANCH  14  15
ATOM     15  O   UNL     1      -2.382  -6.706  -0.544  0.00  0.00    -0.481 OA
ATOM     16  H   UNL     1      -2.145  -7.080   0.316  0.00  0.00    +0.394 HD
ENDBRANCH  14  15
TORSDOF 2
