REMARK  Name = ZINC05783606
REMARK  5 active torsions:
REMARK  status: ('A' for Active; 'I' for Inactive)
REMARK    1  A    between atoms: C1_1  and  N1_2
REMARK    2  A    between atoms: C12_14  and  O4_20
REMARK    3  A    between atoms: C13_15  and  O3_18
REMARK    4  A    between atoms: O3_18  and  C15_19
REMARK    5  A    between atoms: O4_20  and  C16_21
REMARK                            x       y       z     vdW  Elec       q    Type
REMARK                         _______ _______ _______ _____ _____    ______ ____
ROOT
ATOM      1  C   UNL     1       4.867   1.320  -0.037  0.00  0.00    +0.291 C 
ATOM      2  N   UNL     1       3.618   2.084  -0.021  0.00  0.00    -0.526 N 
ATOM      3  C   UNL     1       3.682   3.461  -0.014  0.00  0.00    +0.225 A 
ATOM      4  C   UNL     1       4.920   4.101  -0.023  0.00  0.00    -0.073 A 
ATOM      5  C   UNL     1       4.985   5.477  -0.017  0.00  0.00    +0.058 A 
ATOM      6  C   UNL     1       3.827   6.241  -0.002  0.00  0.00    -0.062 A 
ATOM      7  C   UNL     1       2.593   5.630   0.008  0.00  0.00    +0.104 A 
ATOM      8  C   UNL     1       2.511   4.236   0.002  0.00  0.00    -0.199 A 
ATOM      9  C   UNL     1       1.200   3.559   0.012  0.00  0.00    +0.430 A 
ATOM     10  C   UNL     1       1.194   2.090   0.002  0.00  0.00    -0.355 A 
ATOM     11  C   UNL     1      -0.017   1.380   0.010  0.00  0.00    +0.344 A 
ATOM     12  O   UNL     1      -1.200   2.047   0.019  0.00  0.00    -0.638 OA
ATOM     13  C   UNL     1       0.002  -0.004   0.002  0.00  0.00    -0.116 A 
ATOM     16  C   UNL     1       1.218  -0.686  -0.014  0.00  0.00    +0.199 A 
ATOM     19  C   UNL     1       2.416   0.009  -0.021  0.00  0.00    -0.263 A 
ATOM     20  O   UNL     1       0.162   4.195   0.025  0.00  0.00    -0.466 OA
ATOM     21  C   UNL     1       2.419   1.398  -0.013  0.00  0.00    +0.281 A 
ENDROOT
BRANCH  13  14
ATOM     14  O   UNL     1      -1.168  -0.700   0.009  0.00  0.00    -0.306 OA
ATOM     15  C   UNL     1      -1.738  -1.025  -1.260  0.00  0.00    +0.170 C 
ENDBRANCH  13  14
BRANCH  16  17
ATOM     17  O   UNL     1       1.227  -2.044  -0.022  0.00  0.00    -0.311 OA
ATOM     18  C   UNL     1       2.505  -2.684  -0.038  0.00  0.00    +0.215 C 
ENDBRANCH  16  17
TORSDOF 2
