REMARK  Name = ZINC04095704
REMARK  10 active torsions:
REMARK  status: ('A' for Active; 'I' for Inactive)
REMARK    1  A    between atoms: C3_3  and  O10_36
REMARK    2  A    between atoms: C6_6  and  C7_7
REMARK    3  A    between atoms: C13_15  and  O9_35
REMARK    4  A    between atoms: C14_16  and  C16_19
REMARK    5  A    between atoms: C15_17  and  O3_18
REMARK    6  A    between atoms: C17_21  and  O8_34
REMARK    7  A    between atoms: C18_23  and  O7_33
REMARK    8  A    between atoms: C19_25  and  O6_32
REMARK    9  A    between atoms: C20_27  and  C21_30
REMARK   10  A    between atoms: C21_30  and  O5_31
REMARK                            x       y       z     vdW  Elec       q    Type
REMARK                         _______ _______ _______ _____ _____    ______ ____
ROOT
ATOM      9  C   UNL     1      -1.264  -0.761   0.011  0.00  0.00    +0.208 A 
ATOM     10  C   UNL     1      -1.213  -2.120   0.008  0.00  0.00    -0.146 A 
ATOM     11  C   UNL     1      -2.418  -2.863   0.017  0.00  0.00    +0.424 A 
ATOM     12  C   UNL     1      -3.681  -2.107   0.028  0.00  0.00    -0.266 A 
ATOM     13  C   UNL     1      -3.621  -0.702   0.029  0.00  0.00    +0.188 A 
ATOM     14  C   UNL     1      -4.798   0.030   0.040  0.00  0.00    -0.032 A 
ATOM     15  C   UNL     1      -6.021  -0.623   0.049  0.00  0.00    +0.217 A 
ATOM     18  C   UNL     1      -6.083  -2.012   0.048  0.00  0.00    -0.165 A 
ATOM     34  C   UNL     1      -4.920  -2.759   0.037  0.00  0.00    +0.247 A 
ATOM     37  O   UNL     1      -2.410  -4.084   0.016  0.00  0.00    -0.452 OA
ATOM     38  O   UNL     1      -2.422  -0.082   0.026  0.00  0.00    -0.218 OA
ENDROOT
BRANCH   9   8
ATOM      1  C   UNL     1      -0.017   1.394   0.010  0.00  0.00    +0.080 A 
ATOM      2  C   UNL     1       1.168   2.096   0.002  0.00  0.00    -0.011 A 
ATOM      3  C   UNL     1       2.380   1.418  -0.013  0.00  0.00    +0.135 A 
ATOM      6  C   UNL     1       2.404   0.028  -0.021  0.00  0.00    -0.006 A 
ATOM      7  C   UNL     1       1.224  -0.682  -0.014  0.00  0.00    +0.080 A 
ATOM      8  C   UNL     1       0.002  -0.004   0.002  0.00  0.00    -0.084 A 
BRANCH   3   4
ATOM      4  O   UNL     1       3.546   2.115  -0.021  0.00  0.00    -0.497 OA
ATOM      5  H   UNL     1       3.892   2.312   0.860  0.00  0.00    +0.398 HD
ENDBRANCH   3   4
ENDBRANCH   9   8
BRANCH  18  19
ATOM     19  C   UNL     1      -7.422  -2.705   0.058  0.00  0.00    +0.244 C 
ATOM     20  C   UNL     1      -8.035  -2.609   1.458  0.00  0.00    +0.179 C 
ATOM     23  C   UNL     1      -9.421  -3.262   1.445  0.00  0.00    +0.117 C 
ATOM     26  C   UNL     1     -10.286  -2.577   0.382  0.00  0.00    +0.131 C 
ATOM     29  C   UNL     1      -9.585  -2.674  -0.975  0.00  0.00    +0.181 C 
ATOM     33  O   UNL     1      -8.291  -2.076  -0.886  0.00  0.00    -0.344 OA
BRANCH  20  21
ATOM     21  O   UNL     1      -7.195  -3.286   2.394  0.00  0.00    -0.555 OA
ATOM     22  H   UNL     1      -7.524  -3.265   3.304  0.00  0.00    +0.392 HD
ENDBRANCH  20  21
BRANCH  23  24
ATOM     24  O   UNL     1     -10.031  -3.115   2.728  0.00  0.00    -0.557 OA
ATOM     25  H   UNL     1     -10.912  -3.506   2.792  0.00  0.00    +0.383 HD
ENDBRANCH  23  24
BRANCH  26  27
ATOM     27  O   UNL     1     -11.558  -3.225   0.312  0.00  0.00    -0.553 OA
ATOM     28  H   UNL     1     -12.055  -3.206   1.141  0.00  0.00    +0.383 HD
ENDBRANCH  26  27
BRANCH  29  30
ATOM     30  C   UNL     1     -10.415  -1.941  -2.031  0.00  0.00    +0.219 C 
BRANCH  30  31
ATOM     31  O   UNL     1      -9.823  -2.129  -3.318  0.00  0.00    -0.566 OA
ATOM     32  H   UNL     1     -10.297  -1.691  -4.037  0.00  0.00    +0.384 HD
ENDBRANCH  30  31
ENDBRANCH  29  30
ENDBRANCH  18  19
BRANCH  15  16
ATOM     16  O   UNL     1      -7.169   0.101   0.060  0.00  0.00    -0.481 OA
ATOM     17  H   UNL     1      -7.510   0.313  -0.820  0.00  0.00    +0.406 HD
ENDBRANCH  15  16
BRANCH  34  35
ATOM     35  O   UNL     1      -4.978  -4.115   0.036  0.00  0.00    -0.470 OA
ATOM     36  H   UNL     1      -4.987  -4.509   0.919  0.00  0.00    +0.407 HD
ENDBRANCH  34  35
TORSDOF 10
