REMARK  Name = ZINC00058188
REMARK  5 active torsions:
REMARK  status: ('A' for Active; 'I' for Inactive)
REMARK    1  A    between atoms: C1_1  and  O1_2
REMARK    2  A    between atoms: O1_2  and  C2_3
REMARK    3  A    between atoms: C9_11  and  C10_12
REMARK    4  A    between atoms: C11_14  and  C12_15
REMARK    5  A    between atoms: C12_15  and  C13_17
REMARK                            x       y       z     vdW  Elec       q    Type
REMARK                         _______ _______ _______ _____ _____    ______ ____
ROOT
ATOM      3  C   UNL     1       0.424  -0.152  -0.700  0.00  0.00    +0.197 A 
ATOM      4  C   UNL     1      -0.562  -0.123  -1.689  0.00  0.00    -0.155 A 
ATOM      5  C   UNL     1      -1.938   0.386  -1.749  0.00  0.00    -0.035 A 
ATOM      6  C   UNL     1      -2.381   0.118  -2.984  0.00  0.00    +0.222 A 
ATOM      7  O   UNL     1      -1.423  -0.505  -3.694  0.00  0.00    -0.188 OA
ATOM      8  C   UNL     1      -0.308  -0.672  -2.956  0.00  0.00    +0.084 A 
ATOM      9  C   UNL     1       0.934  -1.247  -3.221  0.00  0.00    +0.041 A 
ATOM     10  C   UNL     1       1.900  -1.279  -2.261  0.00  0.00    +0.101 A 
ATOM     11  C   UNL     1       1.667  -0.728  -0.991  0.00  0.00    -0.127 A 
ENDROOT
BRANCH  11  12
ATOM     12  C   UNL     1       2.722  -0.763   0.033  0.00  0.00    +0.314 C 
ATOM     13  O   UNL     1       3.865  -0.065  -0.150  0.00  0.00    -0.435 OA
ATOM     14  C   UNL     1       2.547  -1.501   1.169  0.00  0.00    +0.071 C 
BRANCH  14  15
ATOM     15  C   UNL     1       1.435  -2.354   1.289  0.00  0.00    +0.377 C 
ATOM     16  O   UNL     1       0.697  -2.531   0.335  0.00  0.00    -0.395 OA
BRANCH  15  17
ATOM     17  C   UNL     1       1.162  -3.038   2.573  0.00  0.00    -0.153 A 
ATOM     18  C   UNL     1       1.919  -2.732   3.705  0.00  0.00    +0.051 A 
ATOM     19  C   UNL     1       1.658  -3.372   4.899  0.00  0.00    +0.003 A 
ATOM     20  C   UNL     1       0.650  -4.316   4.976  0.00  0.00    +0.043 A 
ATOM     21  C   UNL     1      -0.104  -4.624   3.857  0.00  0.00    +0.002 A 
ATOM     22  C   UNL     1       0.142  -3.986   2.659  0.00  0.00    +0.076 A 
ENDBRANCH  15  17
ENDBRANCH  14  15
ENDBRANCH  11  12
BRANCH   3   2
ATOM      1  C   UNL     1       0.397   1.782   0.679  0.00  0.00    +0.239 C 
ATOM      2  O   UNL     1       0.184   0.377   0.525  0.00  0.00    -0.334 OA
ENDBRANCH   3   2
TORSDOF 4
