REMARK  Name = ZINC95486013
REMARK  6 active torsions:
REMARK  status: ('A' for Active; 'I' for Inactive)
REMARK    1  A    between atoms: C1_1  and  C2_2
REMARK    2  A    between atoms: C4_4  and  O5_25
REMARK    3  A    between atoms: C5_5  and  C9_10
REMARK    4  A    between atoms: C7_7  and  O1_8
REMARK    5  A    between atoms: O1_8  and  C8_9
REMARK    6  A    between atoms: O5_25  and  C20_26
REMARK                            x       y       z     vdW  Elec       q    Type
REMARK                         _______ _______ _______ _____ _____    ______ ____
ROOT
ATOM      8  C   UNL     1       0.061  -4.282  -0.017  0.00  0.00    +0.014 C 
ATOM      9  C   UNL     1       1.308  -4.792   0.720  0.00  0.00    +0.286 C 
ATOM     10  O   UNL     1       1.278  -4.338   2.073  0.00  0.00    -0.300 OA
ATOM     11  C   UNL     1       0.171  -4.580   2.817  0.00  0.00    +0.193 A 
ATOM     12  C   UNL     1       0.262  -4.589   4.196  0.00  0.00    -0.010 A 
ATOM     13  C   UNL     1      -0.866  -4.829   4.971  0.00  0.00    +0.118 A 
ATOM     14  C   UNL     1      -2.108  -5.063   4.349  0.00  0.00    -0.173 A 
ATOM     15  C   UNL     1      -2.210  -5.059   2.964  0.00  0.00    +0.177 A 
ATOM     16  C   UNL     1      -3.063  -5.271   5.446  0.00  0.00    -0.030 A 
ATOM     17  C   UNL     1      -2.360  -5.154   6.579  0.00  0.00    +0.218 A 
ATOM     18  O   UNL     1      -1.070  -4.895   6.302  0.00  0.00    -0.189 OA
ATOM     19  C   UNL     1      -1.072  -4.820   2.197  0.00  0.00    -0.256 A 
ATOM     20  C   UNL     1      -1.150  -4.820   0.724  0.00  0.00    +0.414 C 
ATOM     21  O   UNL     1      -2.129  -5.228   0.135  0.00  0.00    -0.432 OA
ENDROOT
BRANCH   8   7
ATOM      1  C   UNL     1      -0.018   1.503   0.010  0.00  0.00    +0.105 C 
ATOM      2  C   UNL     1       0.002  -0.004   0.002  0.00  0.00    -0.068 A 
ATOM      3  C   UNL     1       0.006  -0.688  -1.198  0.00  0.00    -0.033 A 
ATOM      4  C   UNL     1       0.025  -2.075  -1.206  0.00  0.00    +0.113 A 
ATOM      7  C   UNL     1       0.041  -2.775  -0.008  0.00  0.00    -0.084 A 
ATOM     22  C   UNL     1       0.037  -2.091   1.192  0.00  0.00    -0.009 A 
ATOM     23  C   UNL     1       0.023  -0.704   1.199  0.00  0.00    +0.093 A 
BRANCH   4   5
ATOM      5  O   UNL     1       0.028  -2.748  -2.387  0.00  0.00    -0.315 OA
ATOM      6  C   UNL     1       0.011  -1.964  -3.581  0.00  0.00    +0.242 C 
ENDBRANCH   4   5
BRANCH  23  24
ATOM     24  O   UNL     1       0.025  -0.030   2.380  0.00  0.00    -0.311 OA
ATOM     25  C   UNL     1       0.047  -0.815   3.575  0.00  0.00    +0.236 C 
ENDBRANCH  23  24
ENDBRANCH   8   7
TORSDOF 3
