REMARK  Name = ZINC95486034
REMARK  25 active torsions:
REMARK  status: ('A' for Active; 'I' for Inactive)
REMARK    1  A    between atoms: C1_1  and  C2_2
REMARK    2  A    between atoms: C2_2  and  C15_18
REMARK    3  A    between atoms: C3_3  and  C4_4
REMARK    4  A    between atoms: C4_4  and  C5_5
REMARK    5  A    between atoms: C5_5  and  C6_6
REMARK    6  A    between atoms: C7_7  and  C8_8
REMARK    7  A    between atoms: C7_7  and  C9_9
REMARK    8  A    between atoms: C9_9  and  C10_10
REMARK    9  A    between atoms: C10_10  and  C11_11
REMARK   10  A    between atoms: C11_11  and  C12_13
REMARK   11  A    between atoms: C11_11  and  O2_17
REMARK   12  A    between atoms: C12_13  and  C13_14
REMARK   13  A    between atoms: C12_13  and  C14_15
REMARK   14  A    between atoms: C12_13  and  O1_16
REMARK   15  A    between atoms: C15_18  and  C16_19
REMARK   16  A    between atoms: C16_19  and  C17_20
REMARK   17  A    between atoms: C18_21  and  C19_22
REMARK   18  A    between atoms: C18_21  and  C20_23
REMARK   19  A    between atoms: C20_23  and  C21_24
REMARK   20  A    between atoms: C21_24  and  C22_25
REMARK   21  A    between atoms: C22_25  and  C23_27
REMARK   22  A    between atoms: C22_25  and  O4_31
REMARK   23  A    between atoms: C23_27  and  C24_28
REMARK   24  A    between atoms: C23_27  and  C25_29
REMARK   25  A    between atoms: C23_27  and  O3_30
REMARK                            x       y       z     vdW  Elec       q    Type
REMARK                         _______ _______ _______ _____ _____    ______ ____
ROOT
ATOM      1  C   UNL     1      -2.754   0.125  -0.050  0.00  0.00    +0.071 C 
ATOM      2  C   UNL     1      -1.918  -1.080   0.296  0.00  0.00    -0.127 C 
ATOM     18  C   UNL     1      -1.444  -1.222   1.509  0.00  0.00    -0.057 C 
ENDROOT
BRANCH   2   3
ATOM      3  C   UNL     1      -1.627  -2.122  -0.753  0.00  0.00    +0.056 C 
BRANCH   3   4
ATOM      4  C   UNL     1      -2.782  -3.123  -0.812  0.00  0.00    +0.054 C 
BRANCH   4   5
ATOM      5  C   UNL     1      -2.491  -4.165  -1.862  0.00  0.00    -0.056 C 
ATOM      6  C   UNL     1      -2.358  -5.422  -1.518  0.00  0.00    -0.126 C 
ATOM     17  C   UNL     1      -2.504  -5.827  -0.073  0.00  0.00    +0.071 C 
BRANCH   6   7
ATOM      7  C   UNL     1      -2.058  -6.462  -2.566  0.00  0.00    +0.059 C 
BRANCH   7   8
ATOM      8  C   UNL     1      -0.548  -6.700  -2.632  0.00  0.00    +0.006 C 
BRANCH   8   9
ATOM      9  C   UNL     1      -0.244  -7.756  -3.696  0.00  0.00    +0.182 C 
BRANCH   9  12
ATOM     12  C   UNL     1       1.250  -8.085  -3.677  0.00  0.00    +0.096 C 
ATOM     15  C   UNL     1       2.057  -6.796  -3.848  0.00  0.00    +0.057 C 
ATOM     16  C   UNL     1       1.576  -9.046  -4.821  0.00  0.00    +0.018 C 
BRANCH  12  13
ATOM     13  O   UNL     1       1.587  -8.696  -2.430  0.00  0.00    -0.554 OA
ATOM     14  H   UNL     1       1.112  -9.520  -2.255  0.00  0.00    +0.377 HD
ENDBRANCH  12  13
ENDBRANCH   9  12
BRANCH   9  10
ATOM     10  O   UNL     1      -0.605  -7.252  -4.984  0.00  0.00    -0.553 OA
ATOM     11  H   UNL     1      -0.132  -6.448  -5.238  0.00  0.00    +0.374 HD
ENDBRANCH   9  10
ENDBRANCH   8   9
ENDBRANCH   7   8
ENDBRANCH   6   7
ENDBRANCH   4   5
ENDBRANCH   3   4
ENDBRANCH   2   3
BRANCH  18  19
ATOM     19  C   UNL     1      -1.837  -0.248   2.590  0.00  0.00    +0.049 C 
BRANCH  19  20
ATOM     20  C   UNL     1      -2.558  -0.997   3.713  0.00  0.00    +0.053 C 
BRANCH  20  21
ATOM     21  C   UNL     1      -2.951  -0.023   4.794  0.00  0.00    -0.056 C 
ATOM     22  C   UNL     1      -4.214   0.138   5.103  0.00  0.00    -0.127 C 
ATOM     33  C   UNL     1      -5.278  -0.603   4.336  0.00  0.00    +0.071 C 
BRANCH  22  23
ATOM     23  C   UNL     1      -4.602   1.065   6.226  0.00  0.00    +0.059 C 
BRANCH  23  24
ATOM     24  C   UNL     1      -4.944   2.442   5.656  0.00  0.00    +0.006 C 
BRANCH  24  25
ATOM     25  C   UNL     1      -5.338   3.383   6.797  0.00  0.00    +0.181 C 
BRANCH  25  28
ATOM     28  C   UNL     1      -5.559   4.792   6.243  0.00  0.00    +0.096 C 
ATOM     31  C   UNL     1      -5.953   5.732   7.383  0.00  0.00    +0.018 C 
ATOM     32  C   UNL     1      -6.677   4.760   5.199  0.00  0.00    +0.057 C 
BRANCH  28  29
ATOM     29  O   UNL     1      -4.353   5.259   5.635  0.00  0.00    -0.554 OA
ATOM     30  H   UNL     1      -3.600   5.305   6.240  0.00  0.00    +0.377 HD
ENDBRANCH  28  29
ENDBRANCH  25  28
BRANCH  25  26
ATOM     26  O   UNL     1      -6.544   2.916   7.404  0.00  0.00    -0.553 OA
ATOM     27  H   UNL     1      -7.297   2.870   6.799  0.00  0.00    +0.374 HD
ENDBRANCH  25  26
ENDBRANCH  24  25
ENDBRANCH  23  24
ENDBRANCH  22  23
ENDBRANCH  20  21
ENDBRANCH  19  20
ENDBRANCH  18  19
TORSDOF 18
