REMARK  Name = ZINC95486312
REMARK  11 active torsions:
REMARK  status: ('A' for Active; 'I' for Inactive)
REMARK    1  A    between atoms: C1_1  and  C2_2
REMARK    2  A    between atoms: C2_2  and  C3_3
REMARK    3  A    between atoms: C3_3  and  C4_5
REMARK    4  A    between atoms: C3_3  and  C5_6
REMARK    5  A    between atoms: C5_6  and  O2_8
REMARK    6  A    between atoms: O2_8  and  C6_9
REMARK    7  A    between atoms: C8_12  and  C22_32
REMARK    8  A    between atoms: C11_15  and  C19_27
REMARK    9  A    between atoms: C19_27  and  O5_28
REMARK   10  A    between atoms: O5_28  and  C20_29
REMARK   11  A    between atoms: C20_29  and  C21_31
REMARK                            x       y       z     vdW  Elec       q    Type
REMARK                         _______ _______ _______ _____ _____    ______ ____
ROOT
ATOM      6  C   UNL     1      -2.802  -4.029  -0.033  0.00  0.00    +0.193 C 
ATOM      7  C   UNL     1      -2.713  -4.723   1.369  0.00  0.00    +0.100 C 
ATOM      8  C   UNL     1      -2.042  -3.718   2.311  0.00  0.00    -0.219 C 
ATOM     11  C   UNL     1      -2.696  -3.046   3.277  0.00  0.00    +0.079 C 
ATOM     12  C   UNL     1      -4.186  -3.263   3.481  0.00  0.00    +0.129 C 
ATOM     13  C   UNL     1      -4.724  -2.997   2.094  0.00  0.00    -0.084 C 
ATOM     19  C   UNL     1      -5.140  -3.981   1.378  0.00  0.00    -0.030 C 
ATOM     20  C   UNL     1      -5.343  -3.778  -0.103  0.00  0.00    +0.212 C 
ATOM     21  O   UNL     1      -5.349  -2.379  -0.384  0.00  0.00    -0.338 OA
ATOM     22  C   UNL     1      -5.478  -2.041  -1.773  0.00  0.00    +0.225 C 
ATOM     23  C   UNL     1      -4.333  -2.681  -2.537  0.00  0.00    +0.369 C 
ATOM     24  O   UNL     1      -3.700  -2.075  -3.376  0.00  0.00    -0.431 OA
ATOM     25  C   UNL     1      -4.037  -4.088  -2.193  0.00  0.00    -0.215 C 
ATOM     26  C   UNL     1      -3.723  -4.987  -3.128  0.00  0.00    +0.139 C 
ATOM     27  C   UNL     1      -4.111  -4.455  -0.728  0.00  0.00    +0.040 C 
ENDROOT
BRANCH   8   9
ATOM      9  C   UNL     1      -0.609  -3.474   2.151  0.00  0.00    +0.439 C 
ATOM     10  O   UNL     1       0.026  -4.105   1.331  0.00  0.00    -0.439 OA
ENDBRANCH   8   9
BRANCH   6   5
ATOM      5  O   UNL     1      -2.790  -2.610   0.134  0.00  0.00    -0.318 OA
BRANCH   5   4
ATOM      4  C   UNL     1      -1.707  -1.953  -0.309  0.00  0.00    +0.447 C 
ATOM     28  O   UNL     1      -0.812  -2.559  -0.850  0.00  0.00    -0.484 OA
BRANCH   4   3
ATOM      3  C   UNL     1      -1.607  -0.460  -0.133  0.00  0.00    +0.017 C 
ATOM     29  C   UNL     1      -2.772   0.218  -0.856  0.00  0.00    +0.059 C 
BRANCH   3   2
ATOM      1  C   UNL     1      -0.126   1.530  -0.432  0.00  0.00    +0.024 C 
ATOM      2  C   UNL     1      -0.284   0.036  -0.721  0.00  0.00    +0.032 C 
ENDBRANCH   3   2
ENDBRANCH   4   3
ENDBRANCH   5   4
ENDBRANCH   6   5
BRANCH  13  14
ATOM     14  C   UNL     1      -4.771  -1.591   1.553  0.00  0.00    +0.318 C 
BRANCH  14  15
ATOM     15  O   UNL     1      -4.383  -0.674   2.578  0.00  0.00    -0.359 OA
BRANCH  15  16
ATOM     16  C   UNL     1      -4.483   0.634   2.295  0.00  0.00    +0.456 C 
ATOM     17  C   UNL     1      -3.981   1.659   3.279  0.00  0.00    +0.144 C 
ATOM     18  O   UNL     1      -4.976   0.990   1.250  0.00  0.00    -0.506 OA
ENDBRANCH  15  16
ENDBRANCH  14  15
ENDBRANCH  13  14
TORSDOF 8
