REMARK  Name = ZINC05063215
REMARK  1 active torsions:
REMARK  status: ('A' for Active; 'I' for Inactive)
REMARK    1  A    between atoms: C6_6  and  O1_7
REMARK                            x       y       z     vdW  Elec       q    Type
REMARK                         _______ _______ _______ _____ _____    ______ ____
ROOT
ATOM      1  C   UNL     1      -0.013   1.076   0.008  0.00  0.00    -0.021 A 
ATOM      2  C   UNL     1       1.173   1.783   0.000  0.00  0.00    +0.074 A 
ATOM      3  C   UNL     1       1.165   3.169   0.007  0.00  0.00    -0.163 A 
ATOM      4  C   UNL     1      -0.041   3.849   0.015  0.00  0.00    +0.138 A 
ATOM      5  O   UNL     1      -0.103   5.208   0.007  0.00  0.00    -0.296 OA
ATOM      6  C   UNL     1       1.048   5.874   0.225  0.00  0.00    +0.488 C 
ATOM      7  C   UNL     1       2.292   5.337  -0.454  0.00  0.00    +0.063 C 
ATOM      8  O   UNL     1       1.086   6.854   0.929  0.00  0.00    -0.432 OA
ATOM      9  C   UNL     1      -1.236   3.139   0.026  0.00  0.00    -0.014 A 
ATOM     10  C   UNL     1       2.488   3.892   0.018  0.00  0.00    +0.118 C 
ATOM     11  C   UNL     1      -1.223   1.754   0.017  0.00  0.00    +0.141 A 
ENDROOT
BRANCH  11  12
ATOM     12  O   UNL     1      -2.392   1.061   0.022  0.00  0.00    -0.493 OA
ATOM     13  H   UNL     1      -2.725   0.858   0.907  0.00  0.00    +0.398 HD
ENDBRANCH  11  12
TORSDOF 1
