REMARK  Name = ZINC14611375
REMARK  6 active torsions:
REMARK  status: ('A' for Active; 'I' for Inactive)
REMARK    1  A    between atoms: C1_1  and  O1_2
REMARK    2  A    between atoms: O1_2  and  C2_3
REMARK    3  A    between atoms: C7_8  and  O2_9
REMARK    4  A    between atoms: O2_9  and  C8_10
REMARK    5  A    between atoms: C14_17  and  O6_24
REMARK    6  A    between atoms: C16_19  and  O5_23
REMARK                            x       y       z     vdW  Elec       q    Type
REMARK                         _______ _______ _______ _____ _____    ______ ____
ROOT
ATOM      3  C   UNL     1       7.316   1.932  -3.471  0.00  0.00    +0.107 A 
ATOM      4  C   UNL     1       7.594   2.307  -2.153  0.00  0.00    +0.016 A 
ATOM      5  C   UNL     1       6.607   1.972  -1.239  0.00  0.00    -0.113 A 
ATOM      6  C   UNL     1       5.411   1.302  -1.616  0.00  0.00    -0.118 A 
ATOM      7  C   UNL     1       4.910   1.298  -0.221  0.00  0.00    -0.103 C 
ATOM      8  C   UNL     1       4.764  -0.086   0.419  0.00  0.00    +0.302 C 
ATOM      9  O   UNL     1       3.570  -0.701  -0.067  0.00  0.00    -0.299 OA
ATOM     10  C   UNL     1       2.408  -0.009  -0.030  0.00  0.00    +0.214 A 
ATOM     11  C   UNL     1       1.205  -0.697  -0.020  0.00  0.00    -0.054 A 
ATOM     12  C   UNL     1       0.002  -0.004   0.002  0.00  0.00    +0.198 A 
ATOM     15  C   UNL     1      -0.017   1.385   0.010  0.00  0.00    -0.074 A 
ATOM     16  C   UNL     1       1.172   2.093   0.002  0.00  0.00    +0.222 A 
ATOM     19  C   UNL     1       2.391   1.397  -0.007  0.00  0.00    -0.288 A 
ATOM     20  C   UNL     1       3.666   2.127   0.017  0.00  0.00    +0.425 C 
ATOM     21  O   UNL     1       3.719   3.323   0.216  0.00  0.00    -0.419 OA
ATOM     22  C   UNL     1       5.149   0.935  -2.928  0.00  0.00    +0.033 A 
ATOM     23  C   UNL     1       6.202   2.023   0.194  0.00  0.00    +0.157 C 
ATOM     24  C   UNL     1       6.151   1.278  -3.839  0.00  0.00    +0.093 A 
ENDROOT
BRANCH   3   2
ATOM      1  C   UNL     1       9.420   2.895  -4.019  0.00  0.00    +0.239 C 
ATOM      2  O   UNL     1       8.231   2.221  -4.434  0.00  0.00    -0.306 OA
ENDBRANCH   3   2
BRANCH  12  13
ATOM     13  O   UNL     1      -1.168  -0.691   0.016  0.00  0.00    -0.491 OA
ATOM     14  H   UNL     1      -1.520  -0.885  -0.863  0.00  0.00    +0.404 HD
ENDBRANCH  12  13
BRANCH  16  17
ATOM     17  O   UNL     1       1.160   3.449   0.003  0.00  0.00    -0.479 OA
ATOM     18  H   UNL     1       1.162   3.842   0.887  0.00  0.00    +0.404 HD
ENDBRANCH  16  17
BRANCH  24  25
ATOM     25  O   UNL     1       5.976   0.955  -5.148  0.00  0.00    -0.306 OA
ATOM     26  C   UNL     1       4.764   0.282  -5.494  0.00  0.00    +0.237 C 
ENDBRANCH  24  25
TORSDOF 4
