REMARK  Name = ZINC56871274
REMARK  10 active torsions:
REMARK  status: ('A' for Active; 'I' for Inactive)
REMARK    1  A    between atoms: C1_1  and  C2_2
REMARK    2  A    between atoms: C2_2  and  C3_4
REMARK    3  A    between atoms: C6_8  and  C29_37
REMARK    4  A    between atoms: C12_17  and  C28_36
REMARK    5  A    between atoms: C15_20  and  O2_35
REMARK    6  A    between atoms: C16_22  and  C26_33
REMARK    7  A    between atoms: C16_22  and  C27_34
REMARK    8  A    between atoms: C20_27  and  C25_32
REMARK    9  A    between atoms: C21_28  and  C24_31
REMARK   10  A    between atoms: C29_37  and  O3_38
REMARK                            x       y       z     vdW  Elec       q    Type
REMARK                         _______ _______ _______ _____ _____    ______ ____
ROOT
ATOM      3  C   UNL     1      -2.633  -3.649   0.582  0.00  0.00    -0.042 C 
ATOM      4  C   UNL     1      -3.171  -4.515   1.755  0.00  0.00    +0.029 C 
ATOM      5  C   UNL     1      -3.065  -5.992   1.301  0.00  0.00    +0.035 C 
ATOM      6  C   UNL     1      -2.997  -5.882  -0.228  0.00  0.00    -0.053 C 
ATOM     10  C   UNL     1      -2.399  -7.067  -0.951  0.00  0.00    +0.030 C 
ATOM     11  C   UNL     1      -2.285  -6.734  -2.446  0.00  0.00    +0.016 C 
ATOM     12  C   UNL     1      -1.503  -5.448  -2.694  0.00  0.00    -0.032 C 
ATOM     13  C   UNL     1      -0.049  -5.723  -2.290  0.00  0.00    +0.017 C 
ATOM     14  C   UNL     1      -1.548  -5.076  -4.187  0.00  0.00    -0.026 C 
ATOM     15  C   UNL     1      -3.019  -4.817  -4.549  0.00  0.00    +0.017 C 
ATOM     16  C   UNL     1      -1.062  -6.257  -5.028  0.00  0.00    +0.014 C 
ATOM     17  C   UNL     1      -0.988  -5.849  -6.508  0.00  0.00    +0.016 C 
ATOM     18  C   UNL     1       0.023  -4.711  -6.628  0.00  0.00    -0.001 C 
ATOM     19  C   UNL     1       0.497  -4.484  -8.046  0.00  0.00    -0.038 C 
ATOM     20  C   UNL     1      -0.653  -4.347  -9.043  0.00  0.00    +0.034 C 
ATOM     21  C   UNL     1       1.324  -5.720  -8.480  0.00  0.00    +0.017 C 
ATOM     22  C   UNL     1       1.434  -3.282  -8.158  0.00  0.00    +0.166 C 
ATOM     25  C   UNL     1       0.915  -2.063  -7.412  0.00  0.00    -0.018 C 
ATOM     26  C   UNL     1       0.625  -2.405  -5.954  0.00  0.00    +0.017 C 
ATOM     27  C   UNL     1      -0.482  -3.477  -5.891  0.00  0.00    -0.036 C 
ATOM     28  C   UNL     1      -1.742  -2.881  -6.501  0.00  0.00    +0.026 C 
ATOM     29  C   UNL     1      -0.687  -3.845  -4.419  0.00  0.00    +0.003 C 
ATOM     30  C   UNL     1      -1.198  -2.662  -3.604  0.00  0.00    +0.011 C 
ATOM     31  C   UNL     1      -1.210  -3.022  -2.114  0.00  0.00    +0.001 C 
ATOM     32  C   UNL     1      -2.050  -4.274  -1.872  0.00  0.00    +0.011 C 
ATOM     33  C   UNL     1      -2.056  -4.665  -0.410  0.00  0.00    +0.024 C 
ENDROOT
BRANCH   3   2
ATOM      1  C   UNL     1      -1.907  -1.380   1.657  0.00  0.00    +0.057 C 
ATOM      2  C   UNL     1      -1.547  -2.732   1.096  0.00  0.00    +0.359 C 
ATOM     34  O   UNL     1      -0.392  -3.081   1.057  0.00  0.00    -0.450 OA
ENDBRANCH   3   2
BRANCH  22  23
ATOM     23  O   UNL     1       1.601  -2.953  -9.543  0.00  0.00    -0.566 OA
ATOM     24  H   UNL     1       2.224  -2.231  -9.704  0.00  0.00    +0.374 HD
ENDBRANCH  22  23
BRANCH   6   7
ATOM      7  C   UNL     1      -4.406  -5.595  -0.745  0.00  0.00    +0.178 C 
BRANCH   7   8
ATOM      8  O   UNL     1      -5.272  -6.676  -0.396  0.00  0.00    -0.569 OA
ATOM      9  H   UNL     1      -6.185  -6.561  -0.693  0.00  0.00    +0.377 HD
ENDBRANCH   7   8
ENDBRANCH   6   7
TORSDOF 4
