REMARK  Name = ZINC01597393
REMARK  3 active torsions:
REMARK  status: ('A' for Active; 'I' for Inactive)
REMARK    1  A    between atoms: C1_1  and  O1_2
REMARK    2  A    between atoms: O1_2  and  C2_3
REMARK    3  A    between atoms: C7_8  and  C8_9
REMARK                            x       y       z     vdW  Elec       q    Type
REMARK                         _______ _______ _______ _____ _____    ______ ____
ROOT
ATOM     12  C   UNL     1       0.063  -2.827  -0.053  0.00  0.00    -0.144 A 
ATOM     13  C   UNL     1       0.846  -3.462   0.881  0.00  0.00    +0.161 A 
ATOM     14  C   UNL     1       0.164  -4.255   1.907  0.00  0.00    -0.157 A 
ATOM     15  C   UNL     1       0.854  -4.704   3.035  0.00  0.00    +0.146 A 
ATOM     16  C   UNL     1       0.180  -5.451   3.991  0.00  0.00    -0.150 A 
ATOM     17  C   UNL     1       0.572  -6.072   5.264  0.00  0.00    -0.037 A 
ATOM     18  C   UNL     1      -0.528  -6.668   5.742  0.00  0.00    +0.228 A 
ATOM     19  O   UNL     1      -1.562  -6.483   4.902  0.00  0.00    -0.189 OA
ATOM     20  C   UNL     1      -1.187  -5.755   3.829  0.00  0.00    +0.101 A 
ATOM     21  C   UNL     1      -1.867  -5.306   2.706  0.00  0.00    +0.030 A 
ATOM     22  C   UNL     1      -1.205  -4.562   1.747  0.00  0.00    +0.160 A 
ATOM     23  O   UNL     1      -1.863  -4.125   0.643  0.00  0.00    -0.277 OA
ATOM     24  C   UNL     1      -1.396  -2.994   0.062  0.00  0.00    +0.522 A 
ATOM     25  O   UNL     1      -2.158  -2.142  -0.356  0.00  0.00    -0.418 OA
ENDROOT
BRANCH  12  11
ATOM      3  C   UNL     1       0.606  -0.607  -1.056  0.00  0.00    +0.175 A 
ATOM      4  C   UNL     1       1.172   0.159  -2.061  0.00  0.00    -0.047 A 
ATOM      5  C   UNL     1       1.788  -0.454  -3.140  0.00  0.00    +0.089 A 
ATOM      6  C   UNL     1       1.841  -1.845  -3.219  0.00  0.00    -0.007 A 
ATOM      7  O   UNL     1       2.494  -2.193  -4.367  0.00  0.00    -0.305 OA
ATOM      8  C   UNL     1       2.479  -1.011  -5.190  0.00  0.00    +0.436 C 
ATOM      9  C   UNL     1       1.278  -2.616  -2.219  0.00  0.00    +0.108 A 
ATOM     10  O   UNL     1       2.409   0.068  -4.239  0.00  0.00    -0.305 OA
ATOM     11  C   UNL     1       0.661  -2.003  -1.129  0.00  0.00    -0.071 A 
BRANCH   3   2
ATOM      1  C   UNL     1      -0.017   1.425   0.010  0.00  0.00    +0.247 C 
ATOM      2  O   UNL     1       0.002  -0.004   0.002  0.00  0.00    -0.295 OA
ENDBRANCH   3   2
ENDBRANCH  12  11
TORSDOF 2
