REMARK  Name = ZINC95486174
REMARK  11 active torsions:
REMARK  status: ('A' for Active; 'I' for Inactive)
REMARK    1  A    between atoms: C1_1  and  C2_2
REMARK    2  A    between atoms: C2_2  and  O2_4
REMARK    3  A    between atoms: O2_4  and  C3_5
REMARK    4  A    between atoms: C5_8  and  C30_40
REMARK    5  A    between atoms: C6_9  and  C29_39
REMARK    6  A    between atoms: C10_14  and  C11_15
REMARK    7  A    between atoms: C10_14  and  C12_16
REMARK    8  A    between atoms: C13_17  and  C28_38
REMARK    9  A    between atoms: C14_18  and  C27_37
REMARK   10  A    between atoms: C18_26  and  C23_32
REMARK   11  A    between atoms: C19_28  and  C22_31
REMARK                            x       y       z     vdW  Elec       q    Type
REMARK                         _______ _______ _______ _____ _____    ______ ____
ROOT
ATOM      4  C   UNL     1      -2.210  -2.520  -1.109  0.00  0.00    +0.167 C 
ATOM      5  C   UNL     1      -0.991  -2.769  -0.221  0.00  0.00    +0.039 C 
ATOM      6  C   UNL     1       0.308  -2.360  -0.909  0.00  0.00    -0.016 C 
ATOM      7  C   UNL     1       0.301  -0.821  -1.059  0.00  0.00    +0.026 C 
ATOM      8  C   UNL     1       0.451  -3.066  -2.248  0.00  0.00    -0.020 C 
ATOM      9  C   UNL     1       0.763  -4.561  -1.999  0.00  0.00    +0.023 C 
ATOM     10  C   UNL     1      -0.778  -2.965  -3.142  0.00  0.00    -0.014 C 
ATOM     11  C   UNL     1      -0.871  -1.523  -3.701  0.00  0.00    +0.031 C 
ATOM     12  C   UNL     1      -0.642  -3.805  -4.409  0.00  0.00    +0.029 C 
ATOM     13  C   UNL     1      -1.929  -4.362  -4.976  0.00  0.00    +0.049 C 
ATOM     14  C   UNL     1      -3.180  -3.528  -4.763  0.00  0.00    -0.054 C 
ATOM     15  C   UNL     1      -3.218  -2.411  -5.820  0.00  0.00    +0.053 C 
ATOM     16  C   UNL     1      -4.418  -4.388  -5.013  0.00  0.00    +0.277 C 
ATOM     22  O   UNL     1      -5.622  -3.711  -4.707  0.00  0.00    -0.340 OA
ATOM     23  C   UNL     1      -5.797  -3.195  -3.486  0.00  0.00    +0.509 C 
ATOM     24  O   UNL     1      -6.902  -3.152  -2.994  0.00  0.00    -0.431 OA
ATOM     25  C   UNL     1      -4.605  -2.671  -2.728  0.00  0.00    +0.074 C 
ATOM     26  O   UNL     1      -3.841  -1.605  -3.275  0.00  0.00    -0.269 OA
ATOM     27  C   UNL     1      -3.234  -2.891  -3.381  0.00  0.00    +0.069 C 
ATOM     28  C   UNL     1       1.682  -2.514  -2.981  0.00  0.00    +0.043 C 
ATOM     29  C   UNL     1       2.946  -2.882  -2.208  0.00  0.00    +0.028 C 
ATOM     30  C   UNL     1       2.813  -2.632  -0.736  0.00  0.00    +0.370 C 
ATOM     31  O   UNL     1       3.840  -2.431  -0.092  0.00  0.00    -0.469 OA
ATOM     32  C   UNL     1       1.509  -2.608   0.013  0.00  0.00    -0.089 C 
ATOM     33  C   UNL     1       1.367  -3.838   0.902  0.00  0.00    +0.058 C 
ATOM     34  C   UNL     1       1.582  -1.384   0.969  0.00  0.00    +0.043 C 
ATOM     35  C   UNL     1      -2.086  -3.268  -2.430  0.00  0.00    +0.000 C 
ATOM     36  C   UNL     1      -2.259  -4.764  -2.115  0.00  0.00    +0.061 C 
ENDROOT
BRANCH  16  17
ATOM     17  C   UNL     1      -4.446  -4.775  -6.469  0.00  0.00    -0.188 A 
ATOM     18  C   UNL     1      -3.994  -5.993  -7.026  0.00  0.00    -0.045 A 
ATOM     19  C   UNL     1      -4.206  -5.918  -8.352  0.00  0.00    +0.172 A 
ATOM     20  O   UNL     1      -4.760  -4.725  -8.626  0.00  0.00    -0.171 OA
ATOM     21  C   UNL     1      -4.912  -4.030  -7.487  0.00  0.00    +0.208 A 
ENDBRANCH  16  17
BRANCH   4   3
ATOM      3  O   UNL     1      -2.471  -1.135  -1.276  0.00  0.00    -0.318 OA
BRANCH   3   2
ATOM      1  C   UNL     1      -3.545   0.928  -0.449  0.00  0.00    +0.152 C 
ATOM      2  C   UNL     1      -3.225  -0.540  -0.339  0.00  0.00    +0.458 C 
ATOM     37  O   UNL     1      -3.648  -1.182   0.594  0.00  0.00    -0.513 OA
ENDBRANCH   3   2
ENDBRANCH   4   3
TORSDOF 3
