REMARK  Name = ZINC95486278
REMARK  11 active torsions:
REMARK  status: ('A' for Active; 'I' for Inactive)
REMARK    1  A    between atoms: C1_1  and  C2_2
REMARK    2  A    between atoms: C5_5  and  C30_41
REMARK    3  A    between atoms: C10_11  and  C22_28
REMARK    4  A    between atoms: C14_16  and  C21_27
REMARK    5  A    between atoms: C15_17  and  O2_26
REMARK    6  A    between atoms: C17_20  and  O1_25
REMARK    7  A    between atoms: C18_22  and  C19_23
REMARK    8  A    between atoms: C18_22  and  C20_24
REMARK    9  A    between atoms: C25_32  and  C28_37
REMARK   10  A    between atoms: C25_32  and  C29_38
REMARK   11  A    between atoms: C26_33  and  O3_36
REMARK                            x       y       z     vdW  Elec       q    Type
REMARK                         _______ _______ _______ _____ _____    ______ ____
ROOT
ATOM      1  C   UNL     1       0.440   1.386  -1.578  0.00  0.00    +0.017 C 
ATOM      2  C   UNL     1       0.502  -0.141  -1.591  0.00  0.00    -0.033 C 
ATOM      3  C   UNL     1       1.592  -0.588  -2.573  0.00  0.00    +0.000 C 
ATOM      4  C   UNL     1       2.935   0.047  -2.212  0.00  0.00    +0.015 C 
ATOM      5  C   UNL     1       3.360  -0.284  -0.788  0.00  0.00    +0.000 C 
ATOM      6  C   UNL     1       3.712  -1.777  -0.753  0.00  0.00    +0.019 C 
ATOM      7  C   UNL     1       2.222  -0.110   0.183  0.00  0.00    -0.079 C 
ATOM      8  C   UNL     1       2.360   0.446   1.348  0.00  0.00    -0.088 C 
ATOM      9  C   UNL     1       3.666   0.955   1.893  0.00  0.00    +0.069 C 
ATOM     10  C   UNL     1       4.838   0.334   1.125  0.00  0.00    +0.018 C 
ATOM     11  C   UNL     1       6.173   0.842   1.628  0.00  0.00    -0.018 C 
ATOM     12  C   UNL     1       6.245   2.384   1.608  0.00  0.00    +0.024 C 
ATOM     13  C   UNL     1       6.420   0.461   3.095  0.00  0.00    +0.169 C 
ATOM     16  C   UNL     1       6.536  -1.053   3.226  0.00  0.00    -0.039 C 
ATOM     17  C   UNL     1       7.829  -1.474   2.530  0.00  0.00    +0.172 C 
ATOM     20  C   UNL     1       7.790  -1.098   1.046  0.00  0.00    -0.036 C 
ATOM     21  C   UNL     1       9.244  -1.234   0.529  0.00  0.00    +0.023 C 
ATOM     22  C   UNL     1       6.960  -2.157   0.320  0.00  0.00    +0.033 C 
ATOM     23  C   UNL     1       7.332   0.316   0.787  0.00  0.00    +0.005 C 
ATOM     24  C   UNL     1       7.113   0.637  -0.684  0.00  0.00    +0.011 C 
ATOM     25  C   UNL     1       5.781   0.147  -1.229  0.00  0.00    +0.006 C 
ATOM     26  C   UNL     1       4.589   0.531  -0.367  0.00  0.00    -0.018 C 
ATOM     27  C   UNL     1       4.258   2.009  -0.651  0.00  0.00    +0.012 C 
ATOM     28  C   UNL     1      -0.842  -0.714  -2.025  0.00  0.00    -0.011 C 
ATOM     29  C   UNL     1      -1.941  -0.480  -1.002  0.00  0.00    +0.174 C 
ATOM     32  C   UNL     1      -1.549  -0.895   0.409  0.00  0.00    -0.117 C 
ATOM     36  C   UNL     1      -2.614  -0.373   1.388  0.00  0.00    +0.021 C 
ATOM     37  C   UNL     1      -0.195  -0.316   0.813  0.00  0.00    +0.027 C 
ATOM     38  C   UNL     1       0.871  -0.676  -0.208  0.00  0.00    +0.071 C 
ENDROOT
BRANCH  32  33
ATOM     33  C   UNL     1      -1.517  -2.400   0.508  0.00  0.00    +0.506 C 
ATOM     34  O   UNL     1      -0.471  -3.001   0.327  0.00  0.00    -0.684 OA
ATOM     35  O   UNL     1      -2.536  -3.016   0.770  0.00  0.00    -0.696 OA
ENDBRANCH  32  33
BRANCH  13  14
ATOM     14  O   UNL     1       5.431   0.988   3.962  0.00  0.00    -0.550 OA
ATOM     15  H   UNL     1       5.564   0.762   4.893  0.00  0.00    +0.370 HD
ENDBRANCH  13  14
BRANCH  17  18
ATOM     18  O   UNL     1       8.946  -0.840   3.154  0.00  0.00    -0.561 OA
ATOM     19  H   UNL     1       9.048  -1.056   4.091  0.00  0.00    +0.372 HD
ENDBRANCH  17  18
BRANCH  29  30
ATOM     30  O   UNL     1      -2.368   0.884  -1.008  0.00  0.00    -0.563 OA
ATOM     31  H   UNL     1      -2.631   1.210  -1.879  0.00  0.00    +0.359 HD
ENDBRANCH  29  30
TORSDOF 4
