REMARK  Name = ZINC14763066
REMARK  8 active torsions:
REMARK  status: ('A' for Active; 'I' for Inactive)
REMARK    1  A    between atoms: C1_1  and  C2_2
REMARK    2  A    between atoms: C2_2  and  C18_24
REMARK    3  A    between atoms: C3_3  and  C4_4
REMARK    4  A    between atoms: C4_4  and  C5_5
REMARK    5  A    between atoms: C6_6  and  O6_23
REMARK    6  A    between atoms: C10_10  and  O1_11
REMARK    7  A    between atoms: C14_16  and  O5_22
REMARK    8  A    between atoms: C15_17  and  O4_21
REMARK                            x       y       z     vdW  Elec       q    Type
REMARK                         _______ _______ _______ _____ _____    ______ ____
ROOT
ATOM      6  C   UNL     1      -7.021   2.264   0.568  0.00  0.00    -0.162 A 
ATOM      7  C   UNL     1      -7.143   3.649   0.573  0.00  0.00    +0.198 A 
ATOM     10  C   UNL     1      -6.069   4.452   0.924  0.00  0.00    -0.031 A 
ATOM     11  C   UNL     1      -4.855   3.881   1.276  0.00  0.00    +0.194 A 
ATOM     12  C   UNL     1      -4.730   2.481   1.271  0.00  0.00    -0.268 A 
ATOM     13  C   UNL     1      -3.438   1.882   1.646  0.00  0.00    +0.440 A 
ATOM     14  C   UNL     1      -2.349   2.813   1.998  0.00  0.00    -0.221 A 
ATOM     15  C   UNL     1      -1.092   2.333   2.372  0.00  0.00    +0.118 A 
ATOM     16  C   UNL     1      -0.091   3.222   2.704  0.00  0.00    +0.051 A 
ATOM     19  C   UNL     1      -0.340   4.597   2.671  0.00  0.00    +0.154 A 
ATOM     22  C   UNL     1      -1.585   5.077   2.307  0.00  0.00    -0.004 A 
ATOM     23  C   UNL     1      -2.603   4.194   1.970  0.00  0.00    +0.174 A 
ATOM     24  O   UNL     1      -3.275   0.675   1.658  0.00  0.00    -0.431 OA
ATOM     25  O   UNL     1      -3.815   4.670   1.616  0.00  0.00    -0.225 OA
ATOM     26  C   UNL     1      -5.819   1.674   0.915  0.00  0.00    +0.225 A 
ENDROOT
BRANCH   7   8
ATOM      8  O   UNL     1      -8.326   4.220   0.231  0.00  0.00    -0.483 OA
ATOM      9  H   UNL     1      -8.412   4.411  -0.713  0.00  0.00    +0.402 HD
ENDBRANCH   7   8
BRANCH  16  17
ATOM     17  O   UNL     1       1.137   2.761   3.064  0.00  0.00    -0.479 OA
ATOM     18  H   UNL     1       1.749   2.654   2.323  0.00  0.00    +0.391 HD
ENDBRANCH  16  17
BRANCH  19  20
ATOM     20  O   UNL     1       0.649   5.468   2.998  0.00  0.00    -0.479 OA
ATOM     21  H   UNL     1       1.192   5.747   2.248  0.00  0.00    +0.399 HD
ENDBRANCH  19  20
BRANCH  26  27
ATOM     27  O   UNL     1      -5.696   0.323   0.911  0.00  0.00    -0.468 OA
ATOM     28  H   UNL     1      -5.403  -0.043   0.066  0.00  0.00    +0.400 HD
ENDBRANCH  26  27
BRANCH   6   5
ATOM      5  C   UNL     1      -8.198   1.405   0.184  0.00  0.00    +0.137 C 
BRANCH   5   4
ATOM      1  C   UNL     1      -8.171  -1.232  -0.816  0.00  0.00    +0.077 C 
ATOM      2  C   UNL     1      -8.229  -0.064  -1.767  0.00  0.00    -0.122 C 
ATOM      3  C   UNL     1      -8.345  -0.304  -3.250  0.00  0.00    +0.074 C 
ATOM      4  C   UNL     1      -8.178   1.161  -1.303  0.00  0.00    -0.063 C 
ENDBRANCH   5   4
ENDBRANCH   6   5
TORSDOF 6
