REMARK  Name = ZINC95485978
REMARK  13 active torsions:
REMARK  status: ('A' for Active; 'I' for Inactive)
REMARK    1  A    between atoms: C1_1  and  C2_2
REMARK    2  A    between atoms: C2_2  and  C29_35
REMARK    3  A    between atoms: C3_3  and  C4_4
REMARK    4  A    between atoms: C4_4  and  C5_5
REMARK    5  A    between atoms: C5_5  and  C6_6
REMARK    6  A    between atoms: C6_6  and  C23_29
REMARK    7  A    between atoms: C10_11  and  C12_14
REMARK    8  A    between atoms: C20_24  and  O6_27
REMARK    9  A    between atoms: O6_27  and  C22_28
REMARK   10  A    between atoms: C23_29  and  C24_30
REMARK   11  A    between atoms: C24_30  and  C25_31
REMARK   12  A    between atoms: C26_32  and  C27_33
REMARK   13  A    between atoms: C26_32  and  C28_34
REMARK                            x       y       z     vdW  Elec       q    Type
REMARK                         _______ _______ _______ _____ _____    ______ ____
ROOT
ATOM      7  C   UNL     1      -1.034   0.148   4.627  0.00  0.00    -0.040 C 
ATOM     14  C   UNL     1      -1.337   1.615   4.505  0.00  0.00    +0.153 A 
ATOM     15  C   UNL     1      -0.398   2.569   4.822  0.00  0.00    -0.222 A 
ATOM     16  C   UNL     1       0.941   2.202   5.279  0.00  0.00    +0.039 C 
ATOM     17  C   UNL     1       1.278   0.894   5.406  0.00  0.00    +0.007 C 
ATOM     20  C   UNL     1      -0.769   3.992   4.693  0.00  0.00    +0.427 A 
ATOM     21  C   UNL     1      -2.207   4.273   4.529  0.00  0.00    -0.223 A 
ATOM     31  C   UNL     1      -3.019   3.222   4.231  0.00  0.00    +0.325 A 
ATOM     32  O   UNL     1       0.064   4.882   4.719  0.00  0.00    -0.451 OA
ATOM     33  O   UNL     1      -2.549   1.987   4.070  0.00  0.00    -0.198 OA
ATOM     34  C   UNL     1       0.356  -0.119   5.104  0.00  0.00    +0.413 C 
ATOM     35  O   UNL     1       0.707  -1.275   5.237  0.00  0.00    -0.413 OA
ENDROOT
BRANCH  21  22
ATOM     22  C   UNL     1      -2.748   5.645   4.685  0.00  0.00    -0.022 A 
ATOM     23  C   UNL     1      -2.381   6.646   3.787  0.00  0.00    +0.067 A 
ATOM     24  C   UNL     1      -2.884   7.923   3.933  0.00  0.00    +0.043 A 
ATOM     25  C   UNL     1      -3.755   8.215   4.971  0.00  0.00    +0.041 A 
ATOM     26  C   UNL     1      -4.125   7.218   5.872  0.00  0.00    +0.033 A 
ATOM     27  O   UNL     1      -4.982   7.755   6.790  0.00  0.00    -0.308 OA
ATOM     28  C   UNL     1      -4.811   9.181   6.685  0.00  0.00    +0.434 C 
ATOM     29  O   UNL     1      -4.380   9.376   5.325  0.00  0.00    -0.307 OA
ATOM     30  C   UNL     1      -3.628   5.935   5.726  0.00  0.00    +0.050 A 
ENDBRANCH  21  22
BRANCH  17  18
ATOM     18  O   UNL     1       2.527   0.561   5.832  0.00  0.00    -0.291 OA
ATOM     19  C   UNL     1       3.421   1.637   6.125  0.00  0.00    +0.247 C 
ENDBRANCH  17  18
BRANCH   7   6
ATOM      6  C   UNL     1      -1.220  -0.509   3.258  0.00  0.00    +0.090 C 
BRANCH   6   5
ATOM      5  C   UNL     1      -0.211   0.077   2.269  0.00  0.00    +0.041 C 
BRANCH   5   4
ATOM      1  C   UNL     1      -0.549   1.673  -0.031  0.00  0.00    +0.071 C 
ATOM      2  C   UNL     1      -0.610   0.171  -0.138  0.00  0.00    -0.125 C 
ATOM      3  C   UNL     1      -0.916  -0.478  -1.463  0.00  0.00    +0.075 C 
ATOM      4  C   UNL     1      -0.395  -0.570   0.920  0.00  0.00    -0.055 C 
ENDBRANCH   5   4
ENDBRANCH   6   5
ENDBRANCH   7   6
BRANCH   7   8
ATOM      8  C   UNL     1      -2.023  -0.478   5.612  0.00  0.00    +0.091 C 
BRANCH   8   9
ATOM      9  C   UNL     1      -1.850   0.169   6.988  0.00  0.00    +0.040 C 
BRANCH   9  10
ATOM     10  C   UNL     1      -2.824  -0.448   7.959  0.00  0.00    -0.058 C 
ATOM     11  C   UNL     1      -2.395  -0.930   9.099  0.00  0.00    -0.121 C 
ATOM     12  C   UNL     1      -3.335  -1.696   9.994  0.00  0.00    +0.076 C 
ATOM     13  C   UNL     1      -0.962  -0.720   9.516  0.00  0.00    +0.071 C 
ENDBRANCH   9  10
ENDBRANCH   8   9
ENDBRANCH   7   8
TORSDOF 8
