REMARK  Name = ZINC13485435
REMARK  10 active torsions:
REMARK  status: ('A' for Active; 'I' for Inactive)
REMARK    1  A    between atoms: C1_1  and  C2_2
REMARK    2  A    between atoms: C2_2  and  C25_31
REMARK    3  A    between atoms: C3_3  and  C4_4
REMARK    4  A    between atoms: C4_4  and  C5_5
REMARK    5  A    between atoms: C10_10  and  O1_11
REMARK    6  A    between atoms: C18_23  and  O4_30
REMARK    7  A    between atoms: C19_24  and  C20_25
REMARK    8  A    between atoms: C20_25  and  C21_26
REMARK    9  A    between atoms: C22_27  and  C23_28
REMARK   10  A    between atoms: C22_27  and  C24_29
REMARK                            x       y       z     vdW  Elec       q    Type
REMARK                         _______ _______ _______ _____ _____    ______ ____
ROOT
ATOM      6  C   UNL     1       4.241   2.431  -8.720  0.00  0.00    -0.123 A 
ATOM      7  C   UNL     1       3.267   1.770  -7.981  0.00  0.00    +0.096 A 
ATOM      8  C   UNL     1       2.047   2.394  -7.841  0.00  0.00    -0.159 A 
ATOM      9  C   UNL     1       1.790   3.661  -8.409  0.00  0.00    +0.110 A 
ATOM     10  O   UNL     1       0.526   4.080  -8.114  0.00  0.00    -0.278 OA
ATOM     11  C   UNL     1       0.169   3.427  -6.903  0.00  0.00    +0.225 C 
ATOM     12  C   UNL     1      -1.267   3.127  -6.633  0.00  0.00    -0.166 A 
ATOM     13  C   UNL     1      -2.316   3.822  -7.174  0.00  0.00    +0.086 A 
ATOM     14  C   UNL     1      -3.616   3.455  -6.871  0.00  0.00    -0.034 A 
ATOM     15  C   UNL     1      -3.848   2.380  -6.024  0.00  0.00    +0.147 A 
ATOM     18  C   UNL     1      -2.788   1.680  -5.472  0.00  0.00    -0.127 A 
ATOM     24  C   UNL     1      -1.483   2.048  -5.762  0.00  0.00    +0.163 A 
ATOM     25  O   UNL     1      -0.441   1.399  -5.189  0.00  0.00    -0.313 OA
ATOM     26  C   UNL     1       0.845   1.319  -5.815  0.00  0.00    +0.273 C 
ATOM     27  C   UNL     1       2.769   4.309  -9.150  0.00  0.00    -0.007 A 
ATOM     28  C   UNL     1       0.790   2.008  -7.156  0.00  0.00    -0.016 C 
ATOM     29  C   UNL     1       3.996   3.668  -9.292  0.00  0.00    +0.145 A 
ENDROOT
BRANCH  15  16
ATOM     16  O   UNL     1      -5.124   2.013  -5.733  0.00  0.00    -0.491 OA
ATOM     17  H   UNL     1      -5.492   2.454  -4.955  0.00  0.00    +0.394 HD
ENDBRANCH  15  16
BRANCH  29  30
ATOM     30  O   UNL     1       4.980   4.271 -10.010  0.00  0.00    -0.490 OA
ATOM     31  H   UNL     1       5.556   4.842  -9.484  0.00  0.00    +0.393 HD
ENDBRANCH  29  30
BRANCH   6   5
ATOM      5  C   UNL     1       5.592   1.788  -8.902  0.00  0.00    +0.115 C 
BRANCH   5   4
ATOM      1  C   UNL     1       6.440  -0.890  -9.148  0.00  0.00    +0.072 C 
ATOM      2  C   UNL     1       5.995  -0.123 -10.366  0.00  0.00    -0.135 C 
ATOM      3  C   UNL     1       5.934  -0.808 -11.707  0.00  0.00    +0.073 C 
ATOM      4  C   UNL     1       5.660   1.139 -10.260  0.00  0.00    -0.043 C 
ENDBRANCH   5   4
ENDBRANCH   6   5
BRANCH  18  19
ATOM     19  C   UNL     1      -3.053   0.514  -4.555  0.00  0.00    +0.126 C 
BRANCH  19  20
ATOM     20  C   UNL     1      -3.142   1.005  -3.132  0.00  0.00    -0.059 C 
ATOM     21  C   UNL     1      -2.394   0.462  -2.204  0.00  0.00    -0.122 C 
ATOM     22  C   UNL     1      -2.381   1.041  -0.813  0.00  0.00    +0.071 C 
ATOM     23  C   UNL     1      -1.546  -0.741  -2.528  0.00  0.00    +0.074 C 
ENDBRANCH  19  20
ENDBRANCH  18  19
TORSDOF 6
