REMARK  Name = ZINC15217320
REMARK  11 active torsions:
REMARK  status: ('A' for Active; 'I' for Inactive)
REMARK    1  A    between atoms: C1_1  and  C2_2
REMARK    2  A    between atoms: C6_6  and  O1_8
REMARK    3  A    between atoms: C14_16  and  O3_17
REMARK    4  A    between atoms: C15_18  and  C16_19
REMARK    5  A    between atoms: C15_18  and  O8_32
REMARK    6  A    between atoms: C17_20  and  O7_31
REMARK    7  A    between atoms: C19_22  and  O6_29
REMARK    8  A    between atoms: C20_23  and  C22_26
REMARK    9  A    between atoms: C21_24  and  O4_25
REMARK   10  A    between atoms: C22_26  and  C23_28
REMARK   11  A    between atoms: O6_29  and  C24_30
REMARK                            x       y       z     vdW  Elec       q    Type
REMARK                         _______ _______ _______ _____ _____    ______ ____
ROOT
ATOM      1  C   UNL     1       1.003  -4.593   4.756  0.00  0.00    +0.103 C 
ATOM      2  C   UNL     1       1.444  -4.776   3.327  0.00  0.00    -0.045 A 
ATOM      3  C   UNL     1       0.573  -4.468   2.297  0.00  0.00    +0.043 A 
ATOM      4  C   UNL     1       0.957  -4.628   0.977  0.00  0.00    -0.011 A 
ATOM      5  C   UNL     1       2.235  -5.115   0.700  0.00  0.00    -0.179 A 
ATOM      6  C   UNL     1       2.654  -5.306  -0.704  0.00  0.00    +0.447 C 
ATOM      7  C   UNL     1       1.597  -5.356  -1.736  0.00  0.00    -0.149 A 
ATOM      8  C   UNL     1       0.324  -4.868  -1.442  0.00  0.00    -0.052 A 
ATOM      9  C   UNL     1      -0.659  -4.934  -2.413  0.00  0.00    -0.010 A 
ATOM     10  C   UNL     1      -0.385  -5.470  -3.659  0.00  0.00    +0.063 A 
ATOM     11  C   UNL     1       0.875  -5.949  -3.957  0.00  0.00    -0.010 A 
ATOM     12  C   UNL     1       1.877  -5.895  -2.998  0.00  0.00    +0.160 A 
ATOM     15  O   UNL     1       3.828  -5.419  -1.000  0.00  0.00    -0.415 OA
ATOM     16  C   UNL     1       3.118  -5.424   1.742  0.00  0.00    +0.163 A 
ATOM     19  C   UNL     1      -0.012  -4.272  -0.109  0.00  0.00    +0.286 C 
ATOM     37  C   UNL     1       2.712  -5.251   3.058  0.00  0.00    -0.014 A 
ENDROOT
BRANCH  19  22
ATOM     22  C   UNL     1      -0.048  -2.772  -0.248  0.00  0.00    -0.216 A 
ATOM     23  C   UNL     1       0.856  -2.133  -1.089  0.00  0.00    +0.202 A 
ATOM     26  C   UNL     1       0.830  -0.751  -1.230  0.00  0.00    -0.099 A 
ATOM     27  C   UNL     1      -0.090   0.003  -0.526  0.00  0.00    +0.202 A 
ATOM     30  C   UNL     1      -1.010  -0.635   0.328  0.00  0.00    -0.229 A 
ATOM     34  C   UNL     1      -0.979  -2.036   0.460  0.00  0.00    +0.218 A 
BRANCH  30  31
ATOM     31  C   UNL     1      -1.990   0.153   1.072  0.00  0.00    +0.426 C 
ATOM     32  C   UNL     1      -1.672   0.629   2.466  0.00  0.00    +0.080 C 
ATOM     33  O   UNL     1      -3.060   0.424   0.568  0.00  0.00    -0.446 OA
ENDBRANCH  30  31
BRANCH  23  24
ATOM     24  O   UNL     1       1.766  -2.864  -1.780  0.00  0.00    -0.482 OA
ATOM     25  H   UNL     1       1.460  -3.151  -2.651  0.00  0.00    +0.395 HD
ENDBRANCH  23  24
BRANCH  27  28
ATOM     28  O   UNL     1      -0.110   1.352  -0.661  0.00  0.00    -0.306 OA
ATOM     29  C   UNL     1       0.853   1.930  -1.545  0.00  0.00    +0.258 C 
ENDBRANCH  27  28
BRANCH  34  35
ATOM     35  O   UNL     1      -1.860  -2.662   1.279  0.00  0.00    -0.470 OA
ATOM     36  H   UNL     1      -2.685  -2.919   0.845  0.00  0.00    +0.399 HD
ENDBRANCH  34  35
ENDBRANCH  19  22
BRANCH  12  13
ATOM     13  O   UNL     1       3.118  -6.362  -3.281  0.00  0.00    -0.477 OA
ATOM     14  H   UNL     1       3.244  -7.298  -3.073  0.00  0.00    +0.397 HD
ENDBRANCH  12  13
BRANCH  16  17
ATOM     17  O   UNL     1       4.361  -5.890   1.467  0.00  0.00    -0.483 OA
ATOM     18  H   UNL     1       5.029  -5.197   1.373  0.00  0.00    +0.399 HD
ENDBRANCH  16  17
BRANCH  19  20
ATOM     20  O   UNL     1      -1.312  -4.723   0.278  0.00  0.00    -0.523 OA
ATOM     21  H   UNL     1      -2.015  -4.465  -0.333  0.00  0.00    +0.374 HD
ENDBRANCH  19  20
TORSDOF 8
