REMARK  Name = ZINC95486375
REMARK  14 active torsions:
REMARK  status: ('A' for Active; 'I' for Inactive)
REMARK    1  A    between atoms: C1_1  and  C2_2
REMARK    2  A    between atoms: C2_2  and  C26_32
REMARK    3  A    between atoms: C3_3  and  C4_4
REMARK    4  A    between atoms: C4_4  and  C5_5
REMARK    5  A    between atoms: C5_5  and  C6_6
REMARK    6  A    between atoms: C8_8  and  C12_13
REMARK    7  A    between atoms: C11_11  and  O1_12
REMARK    8  A    between atoms: C13_14  and  C14_15
REMARK    9  A    between atoms: C14_15  and  C15_17
REMARK   10  A    between atoms: C20_22  and  O3_23
REMARK   11  A    between atoms: C21_25  and  C23_28
REMARK   12  A    between atoms: C23_28  and  C24_29
REMARK   13  A    between atoms: C23_28  and  C25_30
REMARK   14  A    between atoms: C23_28  and  O5_31
REMARK                            x       y       z     vdW  Elec       q    Type
REMARK                         _______ _______ _______ _____ _____    ______ ____
ROOT
ATOM     12  C   UNL     1      -4.067   4.435   7.980  0.00  0.00    +0.428 C 
ATOM     29  O   UNL     1      -4.943   4.676   7.168  0.00  0.00    -0.447 OA
ENDROOT
BRANCH  12  13
ATOM     13  C   UNL     1      -4.031   5.161   9.263  0.00  0.00    -0.220 A 
ATOM     14  C   UNL     1      -3.024   4.893  10.197  0.00  0.00    +0.129 A 
ATOM     15  C   UNL     1      -2.999   5.571  11.389  0.00  0.00    -0.194 A 
ATOM     16  C   UNL     1      -3.968   6.526  11.694  0.00  0.00    +0.162 A 
ATOM     17  O   UNL     1      -3.764   7.053  12.931  0.00  0.00    -0.282 OA
ATOM     18  C   UNL     1      -2.406   6.809  13.334  0.00  0.00    +0.196 C 
ATOM     24  C   UNL     1      -4.969   6.800  10.765  0.00  0.00    -0.044 A 
ATOM     25  C   UNL     1      -2.050   5.511  12.571  0.00  0.00    +0.098 C 
ATOM     26  C   UNL     1      -5.002   6.131   9.556  0.00  0.00    +0.206 A 
BRANCH  18  19
ATOM     19  C   UNL     1      -2.319   6.594  14.846  0.00  0.00    +0.132 C 
ATOM     22  C   UNL     1      -2.758   7.870  15.568  0.00  0.00    +0.024 C 
ATOM     23  C   UNL     1      -0.876   6.261  15.232  0.00  0.00    +0.031 C 
BRANCH  19  20
ATOM     20  O   UNL     1      -3.175   5.514  15.224  0.00  0.00    -0.551 OA
ATOM     21  H   UNL     1      -3.170   5.322  16.172  0.00  0.00    +0.381 HD
ENDBRANCH  19  20
ENDBRANCH  18  19
BRANCH  26  27
ATOM     27  O   UNL     1      -5.976   6.409   8.653  0.00  0.00    -0.476 OA
ATOM     28  H   UNL     1      -6.771   5.867   8.754  0.00  0.00    +0.400 HD
ENDBRANCH  26  27
ENDBRANCH  12  13
BRANCH  12  11
ATOM     10  C   UNL     1      -3.086   2.760   6.506  0.00  0.00    +0.124 C 
ATOM     11  C   UNL     1      -3.053   3.426   7.682  0.00  0.00    -0.102 C 
BRANCH  10   9
ATOM      7  C   UNL     1      -1.141   0.107   4.713  0.00  0.00    -0.108 A 
ATOM      8  C   UNL     1      -2.099   1.056   4.989  0.00  0.00    +0.058 A 
ATOM      9  C   UNL     1      -2.066   1.746   6.206  0.00  0.00    -0.087 A 
ATOM     30  C   UNL     1      -1.058   1.467   7.137  0.00  0.00    +0.045 A 
ATOM     31  C   UNL     1      -0.105   0.516   6.851  0.00  0.00    -0.012 A 
ATOM     32  C   UNL     1      -0.145  -0.171   5.643  0.00  0.00    +0.123 A 
BRANCH  32  33
ATOM     33  O   UNL     1       0.794  -1.112   5.369  0.00  0.00    -0.493 OA
ATOM     34  H   UNL     1       1.579  -0.765   4.924  0.00  0.00    +0.391 HD
ENDBRANCH  32  33
BRANCH   7   6
ATOM      6  C   UNL     1      -1.174  -0.638   3.403  0.00  0.00    +0.083 C 
BRANCH   6   5
ATOM      5  C   UNL     1      -0.156  -0.023   2.441  0.00  0.00    +0.053 C 
BRANCH   5   4
ATOM      1  C   UNL     1      -0.443   1.392   0.018  0.00  0.00    +0.072 C 
ATOM      2  C   UNL     1      -0.383  -0.114   0.012  0.00  0.00    -0.129 C 
ATOM      3  C   UNL     1      -0.545  -0.869  -1.283  0.00  0.00    +0.073 C 
ATOM      4  C   UNL     1      -0.190  -0.767   1.131  0.00  0.00    -0.061 C 
ENDBRANCH   5   4
ENDBRANCH   6   5
ENDBRANCH   7   6
ENDBRANCH  10   9
ENDBRANCH  12  11
TORSDOF 10
