REMARK  Name = ZINC95486261
REMARK  9 active torsions:
REMARK  status: ('A' for Active; 'I' for Inactive)
REMARK    1  A    between atoms: C1_1  and  C2_2
REMARK    2  A    between atoms: C4_4  and  O7_29
REMARK    3  A    between atoms: C5_5  and  C14_17
REMARK    4  A    between atoms: C10_11  and  C11_13
REMARK    5  A    between atoms: C11_13  and  C12_14
REMARK    6  A    between atoms: C12_14  and  C13_16
REMARK    7  A    between atoms: C17_21  and  O6_28
REMARK    8  A    between atoms: C18_23  and  C19_26
REMARK    9  A    between atoms: C19_26  and  O5_27
REMARK                            x       y       z     vdW  Elec       q    Type
REMARK                         _______ _______ _______ _____ _____    ______ ____
ROOT
ATOM      1  C   UNL     1      -0.018   1.503   0.010  0.00  0.00    +0.121 C 
ATOM      2  C   UNL     1       0.002  -0.004   0.002  0.00  0.00    +0.029 A 
ATOM      3  C   UNL     1      -0.097  -0.685  -1.178  0.00  0.00    -0.040 A 
ATOM      4  C   UNL     1      -0.079  -2.078  -1.192  0.00  0.00    +0.208 A 
ATOM      7  C   UNL     1       0.040  -2.792  -0.011  0.00  0.00    -0.146 A 
ATOM     19  C   UNL     1       0.142  -2.115   1.196  0.00  0.00    +0.182 A 
ATOM     20  O   UNL     1       0.258  -2.785   2.360  0.00  0.00    -0.218 OA
ATOM     21  C   UNL     1       0.376  -2.160   3.537  0.00  0.00    +0.166 A 
ATOM     26  C   UNL     1       0.368  -0.821   3.656  0.00  0.00    -0.147 A 
ATOM     27  C   UNL     1       0.244  -0.014   2.493  0.00  0.00    +0.425 A 
ATOM     28  O   UNL     1       0.233   1.204   2.563  0.00  0.00    -0.463 OA
ATOM     29  C   UNL     1       0.128  -0.709   1.199  0.00  0.00    -0.240 A 
ENDROOT
BRANCH   7   8
ATOM      8  C   UNL     1       0.057  -4.299  -0.037  0.00  0.00    +0.212 C 
ATOM      9  C   UNL     1       1.417  -4.785  -0.547  0.00  0.00    +0.010 C 
ATOM     10  C   UNL     1       1.406  -6.314  -0.627  0.00  0.00    -0.007 C 
ATOM     11  C   UNL     1       0.253  -6.759  -1.533  0.00  0.00    +0.147 C 
ATOM     14  C   UNL     1      -1.061  -6.197  -0.985  0.00  0.00    +0.217 C 
ATOM     18  O   UNL     1      -0.973  -4.773  -0.906  0.00  0.00    -0.328 OA
BRANCH  11  12
ATOM     12  O   UNL     1       0.469  -6.268  -2.857  0.00  0.00    -0.546 OA
ATOM     13  H   UNL     1       1.288  -6.581  -3.264  0.00  0.00    +0.377 HD
ENDBRANCH  11  12
BRANCH  14  15
ATOM     15  C   UNL     1      -1.319  -6.770   0.410  0.00  0.00    +0.154 C 
BRANCH  15  16
ATOM     16  O   UNL     1      -2.600  -6.338   0.874  0.00  0.00    -0.557 OA
ATOM     17  H   UNL     1      -2.830  -6.664   1.754  0.00  0.00    +0.381 HD
ENDBRANCH  15  16
ENDBRANCH  14  15
ENDBRANCH   7   8
BRANCH   4   5
ATOM      5  O   UNL     1      -0.180  -2.741  -2.372  0.00  0.00    -0.465 OA
ATOM      6  H   UNL     1       0.671  -2.921  -2.796  0.00  0.00    +0.394 HD
ENDBRANCH   4   5
BRANCH  21  22
ATOM     22  C   UNL     1       0.509  -2.994   4.786  0.00  0.00    +0.138 C 
BRANCH  22  23
ATOM     23  C   UNL     1      -0.860  -3.394   5.271  0.00  0.00    +0.353 C 
ATOM     24  C   UNL     1      -1.003  -4.237   6.512  0.00  0.00    +0.081 C 
ATOM     25  O   UNL     1      -1.843  -3.040   4.665  0.00  0.00    -0.437 OA
ENDBRANCH  22  23
ENDBRANCH  21  22
TORSDOF 7
