REMARK  Name = ZINC82189149
REMARK  20 active torsions:
REMARK  status: ('A' for Active; 'I' for Inactive)
REMARK    1  A    between atoms: C1_1  and  C2_2
REMARK    2  A    between atoms: C2_2  and  C3_3
REMARK    3  A    between atoms: C3_3  and  C4_4
REMARK    4  A    between atoms: C4_4  and  C5_5
REMARK    5  A    between atoms: C5_5  and  C6_6
REMARK    6  A    between atoms: C6_6  and  C7_7
REMARK    7  A    between atoms: C7_7  and  C8_8
REMARK    8  A    between atoms: C8_8  and  C9_9
REMARK    9  A    between atoms: C9_9  and  C10_10
REMARK   10  A    between atoms: C10_10  and  C11_11
REMARK   11  A    between atoms: C11_11  and  C12_12
REMARK   12  A    between atoms: C12_12  and  C13_13
REMARK   13  A    between atoms: C13_13  and  C14_14
REMARK   14  A    between atoms: C14_14  and  C15_15
REMARK   15  A    between atoms: C15_15  and  C16_16
REMARK   16  A    between atoms: C16_16  and  C17_18
REMARK   17  A    between atoms: C16_16  and  C19_20
REMARK   18  A    between atoms: C17_18  and  C18_19
REMARK   19  A    between atoms: C19_20  and  C20_21
REMARK   20  A    between atoms: C20_21  and  C21_22
REMARK                            x       y       z     vdW  Elec       q    Type
REMARK                         _______ _______ _______ _____ _____    ______ ____
ROOT
ATOM     11  C   UNL     1       3.731  -8.657  -6.155  0.00  0.00    -0.000 C 
ENDROOT
BRANCH  11  10
ATOM     10  C   UNL     1       2.920  -8.192  -4.944  0.00  0.00    -0.000 C 
BRANCH  10   9
ATOM      9  C   UNL     1       2.983  -6.666  -4.843  0.00  0.00    +0.000 C 
BRANCH   9   8
ATOM      8  C   UNL     1       2.173  -6.201  -3.632  0.00  0.00    +0.000 C 
BRANCH   8   7
ATOM      7  C   UNL     1       2.236  -4.676  -3.532  0.00  0.00    +0.000 C 
BRANCH   7   6
ATOM      6  C   UNL     1       1.426  -4.210  -2.320  0.00  0.00    +0.000 C 
BRANCH   6   5
ATOM      5  C   UNL     1       1.489  -2.685  -2.220  0.00  0.00    +0.000 C 
BRANCH   5   4
ATOM      4  C   UNL     1       0.678  -2.219  -1.009  0.00  0.00    -0.000 C 
BRANCH   4   3
ATOM      3  C   UNL     1       0.742  -0.694  -0.908  0.00  0.00    -0.000 C 
BRANCH   3   2
ATOM      1  C   UNL     1      -0.006   1.297   0.404  0.00  0.00    +0.006 C 
ATOM      2  C   UNL     1      -0.069  -0.229   0.303  0.00  0.00    -0.006 C 
ENDBRANCH   3   2
ENDBRANCH   4   3
ENDBRANCH   5   4
ENDBRANCH   6   5
ENDBRANCH   7   6
ENDBRANCH   8   7
ENDBRANCH   9   8
ENDBRANCH  10   9
ENDBRANCH  11  10
BRANCH  11  12
ATOM     12  C   UNL     1       3.668 -10.183  -6.255  0.00  0.00    -0.000 C 
BRANCH  12  13
ATOM     13  C   UNL     1       4.478 -10.648  -7.467  0.00  0.00    -0.001 C 
BRANCH  13  14
ATOM     14  C   UNL     1       4.415 -12.173  -7.567  0.00  0.00    +0.001 C 
BRANCH  14  15
ATOM     15  C   UNL     1       5.225 -12.639  -8.779  0.00  0.00    +0.007 C 
BRANCH  15  16
ATOM     16  C   UNL     1       5.272 -14.168  -8.804  0.00  0.00    -0.020 C 
BRANCH  16  20
ATOM     20  C   UNL     1       6.197 -14.631  -9.931  0.00  0.00    +0.001 C 
ATOM     21  C   UNL     1       7.632 -14.201  -9.622  0.00  0.00    +0.005 C 
ENDBRANCH  16  20
BRANCH  16  17
ATOM     17  C   UNL     1       3.864 -14.717  -9.042  0.00  0.00    +0.007 C 
BRANCH  17  18
ATOM     18  C   UNL     1       3.889 -16.244  -8.943  0.00  0.00    -0.005 C 
ATOM     19  C   UNL     1       2.481 -16.793  -9.181  0.00  0.00    +0.004 C 
ENDBRANCH  17  18
ENDBRANCH  16  17
ENDBRANCH  15  16
ENDBRANCH  14  15
ENDBRANCH  13  14
ENDBRANCH  12  13
ENDBRANCH  11  12
TORSDOF 17
