REMARK  Name = ZINC28254002
REMARK  4 active torsions:
REMARK  status: ('A' for Active; 'I' for Inactive)
REMARK    1  A    between atoms: C1_1  and  C2_2
REMARK    2  A    between atoms: C2_2  and  C14_19
REMARK    3  A    between atoms: C3_3  and  O3_18
REMARK    4  A    between atoms: C6_7  and  O2_17
REMARK                            x       y       z     vdW  Elec       q    Type
REMARK                         _______ _______ _______ _____ _____    ______ ____
ROOT
ATOM      1  C   UNL     1      -0.019   1.526   0.010  0.00  0.00    +0.046 C 
ATOM      2  C   UNL     1       0.002  -0.004   0.002  0.00  0.00    +0.127 C 
ATOM      3  C   UNL     1      -1.432  -0.538   0.003  0.00  0.00    +0.093 C 
ATOM      4  C   UNL     1       0.742  -0.503  -1.246  0.00  0.00    +0.159 C 
ATOM      7  C   UNL     1       2.128   0.147  -1.273  0.00  0.00    +0.080 C 
ATOM      8  C   UNL     1       2.779   0.008   0.080  0.00  0.00    -0.216 A 
ATOM      9  C   UNL     1       4.138   0.183   0.174  0.00  0.00    +0.197 A 
ATOM     12  C   UNL     1       4.747   0.054   1.443  0.00  0.00    -0.157 A 
ATOM     13  C   UNL     1       6.129   0.216   1.611  0.00  0.00    +0.055 A 
ATOM     14  C   UNL     1       6.676   0.084   2.852  0.00  0.00    -0.002 A 
ATOM     15  C   UNL     1       5.880  -0.210   3.955  0.00  0.00    +0.049 A 
ATOM     16  C   UNL     1       4.534  -0.374   3.826  0.00  0.00    +0.034 A 
ATOM     17  C   UNL     1       3.934  -0.245   2.562  0.00  0.00    +0.184 A 
ATOM     18  N   UNL     1       2.617  -0.403   2.404  0.00  0.00    -0.506 NA
ATOM     19  C   UNL     1       2.035  -0.289   1.221  0.00  0.00    +0.389 A 
ATOM     20  O   UNL     1       0.692  -0.481   1.157  0.00  0.00    -0.281 OA
ENDROOT
BRANCH   4   5
ATOM      5  O   UNL     1       0.876  -1.924  -1.191  0.00  0.00    -0.549 OA
ATOM      6  H   UNL     1       1.335  -2.306  -1.951  0.00  0.00    +0.382 HD
ENDBRANCH   4   5
BRANCH   9  10
ATOM     10  O   UNL     1       4.878   0.471  -0.925  0.00  0.00    -0.482 OA
ATOM     11  H   UNL     1       4.971   1.418  -1.099  0.00  0.00    +0.400 HD
ENDBRANCH   9  10
TORSDOF 2
