REMARK  Name = ZINC85999636
REMARK  8 active torsions:
REMARK  status: ('A' for Active; 'I' for Inactive)
REMARK    1  A    between atoms: C1_1  and  C2_2
REMARK    2  A    between atoms: C2_2  and  C25_30
REMARK    3  A    between atoms: C3_3  and  C4_4
REMARK    4  A    between atoms: C4_4  and  C5_5
REMARK    5  A    between atoms: C8_8  and  O3_23
REMARK    6  A    between atoms: C11_12  and  C14_17
REMARK    7  A    between atoms: C22_26  and  C23_28
REMARK    8  A    between atoms: C22_26  and  C24_29
REMARK                            x       y       z     vdW  Elec       q    Type
REMARK                         _______ _______ _______ _____ _____    ______ ____
ROOT
ATOM      6  C   UNL     1      -0.864  -0.562   3.381  0.00  0.00    -0.153 A 
ATOM      7  C   UNL     1      -2.180  -0.132   3.397  0.00  0.00    +0.224 A 
ATOM      8  C   UNL     1      -3.109  -0.723   4.270  0.00  0.00    -0.204 A 
ATOM      9  C   UNL     1      -4.504  -0.235   4.250  0.00  0.00    +0.058 C 
ATOM     10  C   UNL     1      -4.899   0.489   3.204  0.00  0.00    -0.058 C 
ATOM     11  C   UNL     1      -3.937   0.777   2.082  0.00  0.00    +0.150 C 
ATOM     12  C   UNL     1      -4.020  -0.346   1.046  0.00  0.00    +0.036 C 
ATOM     13  C   UNL     1      -4.317   2.103   1.420  0.00  0.00    +0.085 C 
ATOM     14  C   UNL     1      -2.712  -1.744   5.129  0.00  0.00    +0.245 A 
ATOM     17  C   UNL     1      -1.375  -2.172   5.109  0.00  0.00    -0.306 A 
ATOM     18  C   UNL     1      -0.921  -3.239   6.008  0.00  0.00    +0.402 C 
ATOM     19  O   UNL     1      -1.605  -3.628   6.932  0.00  0.00    -0.428 OA
ATOM     20  C   UNL     1       0.444  -3.839   5.713  0.00  0.00    +0.038 C 
ATOM     21  C   UNL     1       1.369  -2.677   5.323  0.00  0.00    +0.234 C 
ATOM     28  O   UNL     1       0.833  -2.007   4.183  0.00  0.00    -0.290 OA
ATOM     29  O   UNL     1      -2.600   0.863   2.576  0.00  0.00    -0.291 OA
ATOM     30  C   UNL     1      -0.452  -1.583   4.222  0.00  0.00    +0.232 A 
ENDROOT
BRANCH  21  22
ATOM     22  C   UNL     1       2.739  -3.214   4.993  0.00  0.00    -0.092 A 
ATOM     23  C   UNL     1       3.011  -3.678   3.720  0.00  0.00    +0.038 A 
ATOM     24  C   UNL     1       4.267  -4.170   3.418  0.00  0.00    +0.006 A 
ATOM     25  C   UNL     1       5.251  -4.197   4.388  0.00  0.00    +0.015 A 
ATOM     26  C   UNL     1       4.979  -3.732   5.661  0.00  0.00    +0.009 A 
ATOM     27  C   UNL     1       3.724  -3.236   5.962  0.00  0.00    +0.023 A 
ENDBRANCH  21  22
BRANCH  14  15
ATOM     15  O   UNL     1      -3.604  -2.318   5.973  0.00  0.00    -0.472 OA
ATOM     16  H   UNL     1      -4.063  -3.082   5.599  0.00  0.00    +0.400 HD
ENDBRANCH  14  15
BRANCH   6   5
ATOM      5  C   UNL     1       0.123   0.078   2.439  0.00  0.00    +0.135 C 
BRANCH   5   4
ATOM      1  C   UNL     1      -0.187   1.489   0.017  0.00  0.00    +0.073 C 
ATOM      2  C   UNL     1      -0.082  -0.014   0.008  0.00  0.00    -0.128 C 
ATOM      3  C   UNL     1      -0.210  -0.771  -1.289  0.00  0.00    +0.070 C 
ATOM      4  C   UNL     1       0.121  -0.664   1.128  0.00  0.00    -0.050 C 
ENDBRANCH   5   4
ENDBRANCH   6   5
TORSDOF 4
