REMARK  Name = ZINC85967755
REMARK  11 active torsions:
REMARK  status: ('A' for Active; 'I' for Inactive)
REMARK    1  A    between atoms: C1_1  and  C2_2
REMARK    2  A    between atoms: C2_2  and  C3_3
REMARK    3  A    between atoms: C2_2  and  C4_4
REMARK    4  A    between atoms: C10_10  and  C27_33
REMARK    5  A    between atoms: C12_12  and  O2_15
REMARK    6  A    between atoms: C15_17  and  O3_23
REMARK    7  A    between atoms: C17_20  and  C18_21
REMARK    8  A    between atoms: C17_20  and  C19_22
REMARK    9  A    between atoms: O3_23  and  C20_24
REMARK   10  A    between atoms: C20_24  and  C21_26
REMARK   11  A    between atoms: C24_29  and  O5_32
REMARK                            x       y       z     vdW  Elec       q    Type
REMARK                         _______ _______ _______ _____ _____    ______ ____
ROOT
ATOM      3  C   UNL     1      -1.551   0.253   0.514  0.00  0.00    -0.195 C 
ATOM      4  C   UNL     1      -1.755  -0.616  -0.506  0.00  0.00    +0.109 C 
ATOM      5  C   UNL     1      -2.988  -1.303  -0.616  0.00  0.00    -0.118 C 
ATOM      6  C   UNL     1      -3.212  -2.186  -1.671  0.00  0.00    +0.149 C 
ATOM      7  C   UNL     1      -4.422  -2.867  -1.847  0.00  0.00    -0.050 C 
ATOM      8  C   UNL     1      -5.441  -2.743  -0.989  0.00  0.00    -0.007 C 
ATOM      9  C   UNL     1      -5.284  -1.860   0.233  0.00  0.00    +0.016 C 
ATOM     10  C   UNL     1      -5.439  -2.737   1.477  0.00  0.00    +0.069 C 
ATOM     11  C   UNL     1      -6.437  -0.857   0.192  0.00  0.00    +0.079 C 
ATOM     12  C   UNL     1      -7.766  -1.612   0.150  0.00  0.00    +0.180 C 
ATOM     24  C   UNL     1      -7.877  -2.412  -1.148  0.00  0.00    +0.039 C 
ATOM     25  C   UNL     1      -6.752  -3.454  -1.206  0.00  0.00    -0.025 C 
ATOM     26  C   UNL     1      -6.960  -4.499  -0.109  0.00  0.00    +0.046 C 
ATOM     27  C   UNL     1      -6.749  -4.135  -2.576  0.00  0.00    +0.043 C 
ATOM     28  C   UNL     1      -3.994  -1.088   0.360  0.00  0.00    -0.052 C 
ATOM     29  C   UNL     1      -3.791  -0.219   1.377  0.00  0.00    +0.017 C 
ATOM     32  C   UNL     1      -2.558   0.472   1.475  0.00  0.00    +0.388 C 
ATOM     33  O   UNL     1      -2.370   1.262   2.390  0.00  0.00    -0.474 OA
ENDROOT
BRANCH   3   2
ATOM      1  C   UNL     1      -0.486   2.492   0.565  0.00  0.00    +0.027 C 
ATOM      2  C   UNL     1      -0.237   0.984   0.625  0.00  0.00    +0.037 C 
ATOM     34  C   UNL     1       0.433   0.629   1.954  0.00  0.00    +0.027 C 
ENDBRANCH   3   2
BRANCH  29  30
ATOM     30  O   UNL     1      -4.766  -0.013   2.303  0.00  0.00    -0.460 OA
ATOM     31  H   UNL     1      -4.527   0.626   2.990  0.00  0.00    +0.399 HD
ENDBRANCH  29  30
BRANCH  12  13
ATOM     13  O   UNL     1      -7.838  -2.507   1.262  0.00  0.00    -0.316 OA
BRANCH  13  14
ATOM     14  C   UNL     1      -9.063  -2.774   1.754  0.00  0.00    +0.498 C 
ATOM     23  O   UNL     1     -10.044  -2.262   1.253  0.00  0.00    -0.499 OA
BRANCH  14  15
ATOM     15  C   UNL     1      -9.214  -3.689   2.901  0.00  0.00    -0.142 A 
ATOM     16  C   UNL     1      -8.086  -4.275   3.483  0.00  0.00    +0.095 A 
ATOM     17  C   UNL     1      -8.230  -5.128   4.554  0.00  0.00    -0.019 A 
ATOM     18  C   UNL     1      -9.496  -5.407   5.057  0.00  0.00    +0.147 A 
ATOM     21  C   UNL     1     -10.620  -4.827   4.481  0.00  0.00    -0.017 A 
ATOM     22  C   UNL     1     -10.484  -3.968   3.414  0.00  0.00    +0.108 A 
BRANCH  18  19
ATOM     19  O   UNL     1      -9.634  -6.249   6.112  0.00  0.00    -0.497 OA
ATOM     20  H   UNL     1      -9.605  -5.809   6.973  0.00  0.00    +0.400 HD
ENDBRANCH  18  19
ENDBRANCH  14  15
ENDBRANCH  13  14
ENDBRANCH  12  13
TORSDOF 6
