REMARK  Name = ZINC05839739
REMARK  4 active torsions:
REMARK  status: ('A' for Active; 'I' for Inactive)
REMARK    1  A    between atoms: C1_1  and  C2_2
REMARK    2  A    between atoms: C12_15  and  O5_27
REMARK    3  A    between atoms: C18_22  and  C19_23
REMARK    4  A    between atoms: C18_22  and  C20_24
REMARK                            x       y       z     vdW  Elec       q    Type
REMARK                         _______ _______ _______ _____ _____    ______ ____
ROOT
ATOM      1  C   UNL     1       0.178   1.500   0.003  0.00  0.00    +0.080 C 
ATOM      2  C   UNL     1       0.133  -0.029   0.001  0.00  0.00    +0.115 C 
ATOM      3  C   UNL     1       0.941  -0.645  -1.170  0.00  0.00    +0.034 C 
ATOM      4  C   UNL     1       1.499  -1.983  -0.644  0.00  0.00    +0.021 C 
ATOM      5  C   UNL     1       0.954  -2.123   0.805  0.00  0.00    +0.049 C 
ATOM      6  C   UNL     1      -0.453  -2.740   0.658  0.00  0.00    -0.137 C 
ATOM      9  C   UNL     1      -0.659  -3.805   1.736  0.00  0.00    +0.073 C 
ATOM     10  C   UNL     1      -1.492  -1.602   0.828  0.00  0.00    +0.142 C 
ATOM     11  C   UNL     1      -2.891  -2.116   0.651  0.00  0.00    +0.413 C 
ATOM     12  O   UNL     1      -3.452  -2.010  -0.419  0.00  0.00    -0.401 OA
ATOM     13  C   UNL     1      -3.575  -2.751   1.791  0.00  0.00    -0.133 A 
ATOM     14  C   UNL     1      -4.435  -3.831   1.626  0.00  0.00    +0.099 A 
ATOM     15  C   UNL     1      -5.060  -4.379   2.730  0.00  0.00    +0.019 A 
ATOM     16  C   UNL     1      -4.837  -3.863   4.002  0.00  0.00    +0.135 A 
ATOM     19  C   UNL     1      -3.975  -2.783   4.184  0.00  0.00    +0.053 A 
ATOM     20  C   UNL     1      -3.345  -2.230   3.088  0.00  0.00    -0.101 A 
ATOM     21  C   UNL     1      -2.406  -1.080   3.200  0.00  0.00    +0.449 C 
ATOM     22  O   UNL     1      -2.538  -0.223   4.053  0.00  0.00    -0.420 OA
ATOM     23  C   UNL     1      -1.318  -1.040   2.227  0.00  0.00    -0.229 C 
ATOM     24  C   UNL     1      -0.098  -0.536   2.447  0.00  0.00    +0.123 C 
ATOM     25  O   UNL     1      -1.210  -0.536  -0.085  0.00  0.00    -0.333 OA
ATOM     26  C   UNL     1       0.818  -0.643   1.247  0.00  0.00    +0.022 C 
ENDROOT
BRANCH   6   7
ATOM      7  C   UNL     1      -0.589  -3.365  -0.706  0.00  0.00    +0.461 C 
ATOM      8  O   UNL     1      -0.683  -4.564  -0.813  0.00  0.00    -0.443 OA
ENDBRANCH   6   7
BRANCH  16  17
ATOM     17  O   UNL     1      -5.462  -4.414   5.072  0.00  0.00    -0.492 OA
ATOM     18  H   UNL     1      -6.320  -4.016   5.275  0.00  0.00    +0.401 HD
ENDBRANCH  16  17
TORSDOF 2
