REMARK  Name = ZINC95486208
REMARK  12 active torsions:
REMARK  status: ('A' for Active; 'I' for Inactive)
REMARK    1  A    between atoms: C1_1  and  N1_2
REMARK    2  A    between atoms: C7_9  and  O4_35
REMARK    3  A    between atoms: C8_10  and  O3_33
REMARK    4  A    between atoms: C9_11  and  O1_12
REMARK    5  A    between atoms: O1_12  and  C10_13
REMARK    6  A    between atoms: C16_19  and  C19_24
REMARK    7  A    between atoms: C19_24  and  C20_25
REMARK    8  A    between atoms: C23_28  and  O2_31
REMARK    9  A    between atoms: O2_31  and  C26_32
REMARK   10  A    between atoms: O3_33  and  C27_34
REMARK   11  A    between atoms: O4_35  and  C28_36
REMARK   12  A    between atoms: C35_44  and  O5_46
REMARK                            x       y       z     vdW  Elec       q    Type
REMARK                         _______ _______ _______ _____ _____    ______ ____
ROOT
ATOM      1  C   UNL     1      -0.018   1.465   0.010  0.00  0.00    +0.201 C 
ATOM      2  N   UNL     1       0.002  -0.004   0.002  0.00  0.00    -0.515 NA
ATOM      3  C   UNL     1      -1.358  -0.548  -0.065  0.00  0.00    +0.230 C 
ATOM      4  C   UNL     1      -2.194   0.069   1.057  0.00  0.00    +0.072 C 
ATOM      5  C   UNL     1      -1.472  -0.081   2.372  0.00  0.00    -0.098 A 
ATOM      6  C   UNL     1      -0.121  -0.355   2.424  0.00  0.00    -0.058 A 
ATOM      7  C   UNL     1       0.508  -0.483   3.654  0.00  0.00    -0.048 A 
ATOM      8  C   UNL     1      -0.208  -0.339   4.830  0.00  0.00    +0.122 A 
ATOM     11  C   UNL     1      -1.569  -0.063   4.780  0.00  0.00    +0.062 A 
ATOM     14  C   UNL     1      -2.198   0.066   3.549  0.00  0.00    +0.106 A 
ATOM     36  C   UNL     1      -1.352  -2.044   0.091  0.00  0.00    -0.077 A 
ATOM     37  C   UNL     1      -2.489  -2.750  -0.275  0.00  0.00    +0.032 A 
ATOM     38  C   UNL     1      -2.532  -4.123  -0.149  0.00  0.00    -0.016 A 
ATOM     39  C   UNL     1      -1.431  -4.805   0.348  0.00  0.00    +0.111 A 
ATOM     42  C   UNL     1      -0.288  -4.110   0.657  0.00  0.00    -0.022 A 
ATOM     43  C   UNL     1      -0.251  -2.730   0.547  0.00  0.00    -0.047 A 
ATOM     44  C   UNL     1       1.007  -2.009   0.957  0.00  0.00    +0.108 C 
ATOM     45  C   UNL     1       0.705  -0.526   1.178  0.00  0.00    +0.226 C 
ENDROOT
BRANCH   8   9
ATOM      9  O   UNL     1       0.418  -0.467   6.030  0.00  0.00    -0.302 OA
ATOM     10  C   UNL     1       1.818  -0.751   6.004  0.00  0.00    +0.244 C 
ENDBRANCH   8   9
BRANCH  11  12
ATOM     12  O   UNL     1      -2.281   0.081   5.931  0.00  0.00    -0.317 OA
ATOM     13  C   UNL     1      -2.368   1.397   6.481  0.00  0.00    +0.228 C 
ENDBRANCH  11  12
BRANCH  39  40
ATOM     40  O   UNL     1      -1.467  -6.157   0.476  0.00  0.00    -0.500 OA
ATOM     41  H   UNL     1      -1.160  -6.635  -0.307  0.00  0.00    +0.391 HD
ENDBRANCH  39  40
BRANCH  14  15
ATOM     15  O   UNL     1      -3.530   0.336   3.493  0.00  0.00    -0.249 OA
BRANCH  15  16
ATOM     16  C   UNL     1      -4.393  -0.713   3.466  0.00  0.00    +0.128 A 
ATOM     17  C   UNL     1      -3.909  -2.014   3.501  0.00  0.00    -0.054 A 
ATOM     18  C   UNL     1      -4.792  -3.073   3.475  0.00  0.00    +0.047 A 
ATOM     19  C   UNL     1      -6.160  -2.847   3.414  0.00  0.00    -0.107 A 
ATOM     20  C   UNL     1      -6.643  -1.556   3.375  0.00  0.00    -0.076 A 
ATOM     21  C   UNL     1      -8.118  -1.262   3.296  0.00  0.00    +0.232 C 
ATOM     31  N   UNL     1      -8.899  -2.441   3.684  0.00  0.00    -0.666 NA
ATOM     32  H   UNL     1      -8.822  -2.615   4.675  0.00  0.00    +0.341 HD
ATOM     33  C   UNL     1      -8.470  -3.614   2.906  0.00  0.00    +0.215 C 
ATOM     34  C   UNL     1      -7.084  -4.038   3.393  0.00  0.00    +0.039 C 
ATOM     35  C   UNL     1      -5.758  -0.489   3.409  0.00  0.00    -0.007 A 
BRANCH  21  22
ATOM     22  C   UNL     1      -8.453  -0.103   4.238  0.00  0.00    +0.084 C 
BRANCH  22  23
ATOM     23  C   UNL     1      -9.902   0.276   4.072  0.00  0.00    -0.106 A 
ATOM     24  C   UNL     1     -10.263   1.229   3.137  0.00  0.00    +0.047 A 
ATOM     25  C   UNL     1     -11.591   1.579   2.983  0.00  0.00    -0.025 A 
ATOM     26  C   UNL     1     -12.561   0.973   3.768  0.00  0.00    +0.122 A 
ATOM     29  C   UNL     1     -12.196   0.018   4.705  0.00  0.00    -0.082 A 
ATOM     30  C   UNL     1     -10.868  -0.333   4.851  0.00  0.00    +0.067 A 
BRANCH  26  27
ATOM     27  O   UNL     1     -13.868   1.316   3.619  0.00  0.00    -0.320 OA
ATOM     28  C   UNL     1     -14.813   0.652   4.460  0.00  0.00    +0.237 C 
ENDBRANCH  26  27
ENDBRANCH  22  23
ENDBRANCH  21  22
ENDBRANCH  15  16
ENDBRANCH  14  15
TORSDOF 8
