REMARK  Name = ZINC95485886
REMARK  17 active torsions:
REMARK  status: ('A' for Active; 'I' for Inactive)
REMARK    1  A    between atoms: C1_1  and  N1_2
REMARK    2  A    between atoms: C6_7  and  O6_50
REMARK    3  A    between atoms: C7_8  and  C18_21
REMARK    4  A    between atoms: C10_11  and  C11_13
REMARK    5  A    between atoms: C11_13  and  C12_14
REMARK    6  A    between atoms: C17_19  and  O1_20
REMARK    7  A    between atoms: C18_21  and  C19_22
REMARK    8  A    between atoms: C23_26  and  O3_30
REMARK    9  A    between atoms: C24_27  and  O2_28
REMARK   10  A    between atoms: O2_28  and  C25_29
REMARK   11  A    between atoms: O3_30  and  C26_31
REMARK   12  A    between atoms: C30_36  and  O5_48
REMARK   13  A    between atoms: C31_37  and  O4_46
REMARK   14  A    between atoms: N2_44  and  C37_45
REMARK   15  A    between atoms: O4_46  and  C38_47
REMARK   16  A    between atoms: O5_48  and  C39_49
REMARK   17  A    between atoms: O6_50  and  C40_51
REMARK                            x       y       z     vdW  Elec       q    Type
REMARK                         _______ _______ _______ _____ _____    ______ ____
ROOT
ATOM     13  C   UNL     1       0.390  -5.261   4.517  0.00  0.00    -0.069 A 
ATOM     14  C   UNL     1      -0.708  -4.575   5.035  0.00  0.00    -0.057 A 
ATOM     15  C   UNL     1      -1.914  -5.205   5.167  0.00  0.00    -0.103 A 
ATOM     16  C   UNL     1      -3.177  -4.587   5.674  0.00  0.00    +0.299 C 
ATOM     17  C   UNL     1      -3.543  -3.280   5.059  0.00  0.00    -0.130 A 
ATOM     18  C   UNL     1      -4.614  -3.113   4.210  0.00  0.00    +0.017 A 
ATOM     19  C   UNL     1      -4.896  -1.852   3.704  0.00  0.00    +0.118 A 
ATOM     22  C   UNL     1      -4.105  -0.761   4.054  0.00  0.00    +0.123 A 
ATOM     25  C   UNL     1      -3.020  -0.938   4.904  0.00  0.00    -0.009 A 
ATOM     26  C   UNL     1      -2.743  -2.191   5.388  0.00  0.00    -0.075 A 
ATOM     27  C   UNL     1      -1.565  -2.515   6.258  0.00  0.00    +0.070 C 
ATOM     28  C   UNL     1      -2.020  -3.351   7.444  0.00  0.00    +0.262 C 
ATOM     29  N   UNL     1      -2.996  -4.362   7.122  0.00  0.00    -0.377 N 
ATOM     30  H   UNL     1      -3.883  -4.096   7.522  0.00  0.00    +0.427 HD
ATOM     31  C   UNL     1      -2.561  -5.620   7.744  0.00  0.00    +0.323 C 
ATOM     32  C   UNL     1      -2.019  -6.548   4.788  0.00  0.00    -0.051 A 
ATOM     33  C   UNL     1      -0.938  -7.235   4.278  0.00  0.00    +0.121 A 
ATOM     36  C   UNL     1      -0.478  -3.153   5.433  0.00  0.00    +0.106 C 
ATOM     37  C   UNL     1       0.283  -6.582   4.130  0.00  0.00    +0.124 A 
ENDROOT
BRANCH  19  20
ATOM     20  O   UNL     1      -5.951  -1.681   2.863  0.00  0.00    -0.295 OA
ATOM     21  C   UNL     1      -6.722  -2.841   2.545  0.00  0.00    +0.255 C 
ENDBRANCH  19  20
BRANCH  22  23
ATOM     23  O   UNL     1      -4.393   0.474   3.564  0.00  0.00    -0.293 OA
ATOM     24  C   UNL     1      -3.538   1.547   3.966  0.00  0.00    +0.246 C 
ENDBRANCH  22  23
BRANCH  33  34
ATOM     34  O   UNL     1      -1.065  -8.540   3.915  0.00  0.00    -0.295 OA
ATOM     35  C   UNL     1      -2.350  -9.140   4.090  0.00  0.00    +0.251 C 
ENDBRANCH  33  34
BRANCH  37  38
ATOM     38  O   UNL     1       1.358  -7.239   3.617  0.00  0.00    -0.297 OA
ATOM     39  C   UNL     1       2.204  -7.922   4.544  0.00  0.00    +0.232 C 
ENDBRANCH  37  38
BRANCH  13  12
ATOM     12  C   UNL     1       1.710  -4.549   4.371  0.00  0.00    +0.153 C 
BRANCH  12  11
ATOM      1  C   UNL     1       0.867   1.368   0.059  0.00  0.00    +0.319 C 
ATOM      2  N   UNL     1       0.990  -0.093   0.155  0.00  0.00    -0.376 N 
ATOM      3  H   UNL     1       0.121  -0.524  -0.120  0.00  0.00    +0.425 HD
ATOM      4  C   UNL     1       2.072  -0.555  -0.729  0.00  0.00    +0.269 C 
ATOM      5  C   UNL     1       1.984  -2.076  -0.852  0.00  0.00    +0.121 C 
ATOM      6  C   UNL     1       1.910  -2.696   0.520  0.00  0.00    -0.036 A 
ATOM      7  C   UNL     1       2.170  -4.050   0.652  0.00  0.00    -0.059 A 
ATOM      8  C   UNL     1       2.107  -4.655   1.897  0.00  0.00    +0.174 A 
ATOM     11  C   UNL     1       1.782  -3.899   3.014  0.00  0.00    -0.104 A 
ATOM     40  C   UNL     1       1.526  -2.551   2.879  0.00  0.00    +0.080 A 
ATOM     41  C   UNL     1       1.590  -1.944   1.632  0.00  0.00    -0.171 A 
ATOM     42  C   UNL     1       1.309  -0.468   1.535  0.00  0.00    +0.238 C 
BRANCH   8   9
ATOM      9  O   UNL     1       2.363  -5.984   2.023  0.00  0.00    -0.270 OA
ATOM     10  C   UNL     1       2.690  -6.698   0.830  0.00  0.00    +0.248 C 
ENDBRANCH   8   9
BRANCH  42  43
ATOM     43  C   UNL     1       0.125  -0.120   2.439  0.00  0.00    +0.119 C 
BRANCH  43  44
ATOM     44  C   UNL     1      -0.016   1.378   2.529  0.00  0.00    -0.150 A 
ATOM     45  C   UNL     1       0.989   2.133   3.103  0.00  0.00    +0.029 A 
ATOM     46  C   UNL     1       0.861   3.507   3.186  0.00  0.00    +0.027 A 
ATOM     47  C   UNL     1      -0.272   4.130   2.694  0.00  0.00    +0.055 A 
ATOM     48  C   UNL     1      -1.279   3.379   2.119  0.00  0.00    +0.006 A 
ATOM     49  C   UNL     1      -1.151   2.000   2.030  0.00  0.00    +0.093 A 
BRANCH  49  50
ATOM     50  O   UNL     1      -2.137   1.260   1.460  0.00  0.00    -0.506 OA
ATOM     51  H   UNL     1      -2.815   0.962   2.082  0.00  0.00    +0.394 HD
ENDBRANCH  49  50
ENDBRANCH  43  44
ENDBRANCH  42  43
ENDBRANCH  12  11
ENDBRANCH  13  12
TORSDOF 10
