REMARK  Name = ZINC03978133
REMARK  9 active torsions:
REMARK  status: ('A' for Active; 'I' for Inactive)
REMARK    1  A    between atoms: C1_1  and  C2_2
REMARK    2  A    between atoms: C11_14  and  C12_16
REMARK    3  A    between atoms: C17_24  and  C27_38
REMARK    4  A    between atoms: C18_25  and  C24_33
REMARK    5  A    between atoms: C19_27  and  C22_31
REMARK    6  A    between atoms: C19_27  and  C23_32
REMARK    7  A    between atoms: C24_33  and  C25_34
REMARK    8  A    between atoms: C25_34  and  O7_36
REMARK    9  A    between atoms: O7_36  and  C26_37
REMARK                            x       y       z     vdW  Elec       q    Type
REMARK                         _______ _______ _______ _____ _____    ______ ____
ROOT
ATOM      1  C   UNL     1       3.380   2.702  -2.279  0.00  0.00    +0.052 C 
ATOM      2  C   UNL     1       2.594   1.622  -1.525  0.00  0.00    -0.095 C 
ATOM      3  C   UNL     1       2.459   0.396  -2.416  0.00  0.00    +0.031 C 
ATOM      4  C   UNL     1       3.770  -0.332  -2.654  0.00  0.00    +0.029 C 
ATOM      5  C   UNL     1       4.547  -0.634  -1.384  0.00  0.00    +0.051 C 
ATOM      6  C   UNL     1       4.670   0.681  -0.604  0.00  0.00    -0.145 C 
ATOM      7  C   UNL     1       5.820   1.238  -0.313  0.00  0.00    +0.053 C 
ATOM      8  C   UNL     1       3.882  -1.626  -0.439  0.00  0.00    -0.060 C 
ATOM      9  C   UNL     1       4.902  -1.740   0.762  0.00  0.00    +0.033 C 
ATOM     10  C   UNL     1       3.831  -3.040  -0.960  0.00  0.00    +0.039 C 
ATOM     16  C   UNL     1       2.545  -3.554  -1.561  0.00  0.00    -0.089 C 
ATOM     17  C   UNL     1       2.328  -5.008  -1.060  0.00  0.00    +0.061 C 
ATOM     18  C   UNL     1       2.670  -3.628  -3.091  0.00  0.00    +0.062 C 
ATOM     19  C   UNL     1       1.319  -2.770  -1.204  0.00  0.00    +0.378 C 
ATOM     20  C   UNL     1       1.300  -1.560  -0.335  0.00  0.00    +0.031 C 
ATOM     21  O   UNL     1       0.237  -3.179  -1.651  0.00  0.00    -0.467 OA
ATOM     22  C   UNL     1       2.632  -1.114   0.222  0.00  0.00    +0.229 C 
ATOM     23  O   UNL     1       2.589   0.275   0.488  0.00  0.00    -0.372 OA
ATOM     24  C   UNL     1       1.215   2.184  -1.166  0.00  0.00    +0.286 C 
ATOM     30  O   UNL     1       1.368   3.302  -0.282  0.00  0.00    -0.368 OA
ATOM     31  C   UNL     1       2.123   3.113   0.821  0.00  0.00    +0.497 C 
ATOM     32  O   UNL     1       1.715   3.422   1.917  0.00  0.00    -0.445 OA
ATOM     33  C   UNL     1       3.496   2.496   0.640  0.00  0.00    +0.086 C 
ATOM     34  C   UNL     1       3.320   1.247  -0.226  0.00  0.00    +0.183 C 
ENDROOT
BRANCH  24  25
ATOM     25  C   UNL     1       0.511   2.649  -2.415  0.00  0.00    -0.185 A 
ATOM     26  C   UNL     1      -0.490   1.950  -3.127  0.00  0.00    -0.049 A 
ATOM     27  C   UNL     1      -0.840   2.724  -4.170  0.00  0.00    +0.170 A 
ATOM     28  O   UNL     1      -0.108   3.850  -4.127  0.00  0.00    -0.173 OA
ATOM     29  C   UNL     1       0.709   3.812  -3.061  0.00  0.00    +0.201 A 
ENDBRANCH  24  25
BRANCH  10  11
ATOM     11  C   UNL     1       4.990  -3.335  -1.918  0.00  0.00    +0.111 C 
BRANCH  11  12
ATOM     12  C   UNL     1       6.286  -3.347  -1.149  0.00  0.00    +0.454 C 
ATOM     15  O   UNL     1       6.293  -3.659   0.019  0.00  0.00    -0.491 OA
BRANCH  12  13
ATOM     13  O   UNL     1       7.433  -3.013  -1.761  0.00  0.00    -0.354 OA
ATOM     14  C   UNL     1       8.624  -3.047  -0.971  0.00  0.00    +0.257 C 
ENDBRANCH  12  13
ENDBRANCH  11  12
ENDBRANCH  10  11
TORSDOF 4
