REMARK  Name = ZINC95486196
REMARK  14 active torsions:
REMARK  status: ('A' for Active; 'I' for Inactive)
REMARK    1  A    between atoms: C3_3  and  O12_46
REMARK    2  A    between atoms: C6_6  and  C7_7
REMARK    3  A    between atoms: C8_8  and  C9_9
REMARK    4  A    between atoms: C9_9  and  O2_11
REMARK    5  A    between atoms: O2_11  and  C10_12
REMARK    6  A    between atoms: C14_19  and  O6_29
REMARK    7  A    between atoms: C16_23  and  C18_27
REMARK    8  A    between atoms: C18_27  and  O5_28
REMARK    9  A    between atoms: O6_29  and  C19_30
REMARK   10  A    between atoms: C20_32  and  O11_45
REMARK   11  A    between atoms: C21_34  and  O10_44
REMARK   12  A    between atoms: C22_36  and  O9_43
REMARK   13  A    between atoms: C23_38  and  C24_41
REMARK   14  A    between atoms: C24_41  and  O8_42
REMARK                            x       y       z     vdW  Elec       q    Type
REMARK                         _______ _______ _______ _____ _____    ______ ____
ROOT
ATOM     13  C   UNL     1      -3.696  -4.855   0.013  0.00  0.00    +0.224 C 
ATOM     14  C   UNL     1      -4.114  -5.205   1.439  0.00  0.00    +0.043 C 
ATOM     15  C   UNL     1      -3.893  -4.199   2.514  0.00  0.00    -0.128 C 
ATOM     16  C   UNL     1      -3.595  -4.652   3.721  0.00  0.00    +0.249 C 
ATOM     17  O   UNL     1      -3.451  -5.952   4.052  0.00  0.00    -0.346 OA
ATOM     18  C   UNL     1      -3.639  -6.982   3.063  0.00  0.00    +0.379 C 
ATOM     35  C   UNL     1      -3.170  -6.403   1.748  0.00  0.00    +0.005 C 
ATOM     36  C   UNL     1      -3.271  -7.250   0.486  0.00  0.00    +0.024 C 
ATOM     40  O   UNL     1      -2.357  -6.965  -0.582  0.00  0.00    -0.283 OA
ATOM     41  C   UNL     1      -3.587  -6.249  -0.663  0.00  0.00    +0.149 C 
ENDROOT
BRANCH  13  12
ATOM     12  O   UNL     1      -2.434  -4.186   0.004  0.00  0.00    -0.326 OA
BRANCH  12  11
ATOM     11  C   UNL     1      -2.455  -2.837   0.011  0.00  0.00    +0.505 C 
ATOM     42  O   UNL     1      -3.517  -2.246   0.025  0.00  0.00    -0.512 OA
BRANCH  11  10
ATOM      9  C   UNL     1      -1.259  -0.759   0.011  0.00  0.00    +0.158 C 
ATOM     10  C   UNL     1      -1.238  -2.109   0.003  0.00  0.00    -0.072 C 
BRANCH   9   8
ATOM      1  C   UNL     1      -0.017   1.396   0.010  0.00  0.00    +0.067 A 
ATOM      2  C   UNL     1       1.167   2.098   0.002  0.00  0.00    -0.015 A 
ATOM      3  C   UNL     1       2.380   1.419  -0.014  0.00  0.00    +0.127 A 
ATOM      6  C   UNL     1       2.405   0.029  -0.022  0.00  0.00    -0.014 A 
ATOM      7  C   UNL     1       1.226  -0.683  -0.014  0.00  0.00    +0.060 A 
ATOM      8  C   UNL     1       0.002  -0.004   0.002  0.00  0.00    -0.100 A 
BRANCH   3   4
ATOM      4  O   UNL     1       3.545   2.116  -0.021  0.00  0.00    -0.498 OA
ATOM      5  H   UNL     1       3.891   2.313   0.860  0.00  0.00    +0.396 HD
ENDBRANCH   3   4
ENDBRANCH   9   8
ENDBRANCH  11  10
ENDBRANCH  12  11
ENDBRANCH  13  12
BRANCH  18  19
ATOM     19  O   UNL     1      -2.865  -8.135   3.400  0.00  0.00    -0.336 OA
BRANCH  19  20
ATOM     20  C   UNL     1      -3.343  -8.842   4.545  0.00  0.00    +0.303 C 
ATOM     21  C   UNL     1      -2.314  -9.896   4.961  0.00  0.00    +0.144 C 
ATOM     24  C   UNL     1      -2.860 -10.690   6.152  0.00  0.00    +0.163 C 
ATOM     27  C   UNL     1      -4.205 -11.312   5.764  0.00  0.00    +0.171 C 
ATOM     30  C   UNL     1      -5.161 -10.203   5.317  0.00  0.00    +0.195 C 
ATOM     34  O   UNL     1      -4.579  -9.484   4.227  0.00  0.00    -0.381 OA
BRANCH  21  22
ATOM     22  O   UNL     1      -1.094  -9.252   5.334  0.00  0.00    -0.553 OA
ATOM     23  H   UNL     1      -0.694  -8.727   4.627  0.00  0.00    +0.396 HD
ENDBRANCH  21  22
BRANCH  24  25
ATOM     25  O   UNL     1      -1.937 -11.723   6.502  0.00  0.00    -0.555 OA
ATOM     26  H   UNL     1      -1.061 -11.399   6.753  0.00  0.00    +0.396 HD
ENDBRANCH  24  25
BRANCH  27  28
ATOM     28  O   UNL     1      -4.758 -11.996   6.890  0.00  0.00    -0.550 OA
ATOM     29  H   UNL     1      -4.201 -12.710   7.229  0.00  0.00    +0.396 HD
ENDBRANCH  27  28
BRANCH  30  31
ATOM     31  C   UNL     1      -6.487 -10.822   4.871  0.00  0.00    +0.226 C 
BRANCH  31  32
ATOM     32  O   UNL     1      -7.418  -9.782   4.565  0.00  0.00    -0.567 OA
ATOM     33  H   UNL     1      -8.284 -10.102   4.274  0.00  0.00    +0.385 HD
ENDBRANCH  31  32
ENDBRANCH  30  31
ENDBRANCH  19  20
ENDBRANCH  18  19
BRANCH  36  37
ATOM     37  C   UNL     1      -3.905  -8.638   0.602  0.00  0.00    +0.256 C 
BRANCH  37  38
ATOM     38  O   UNL     1      -3.906  -9.269  -0.680  0.00  0.00    -0.564 OA
ATOM     39  H   UNL     1      -4.295 -10.155  -0.683  0.00  0.00    +0.386 HD
ENDBRANCH  37  38
ENDBRANCH  36  37
TORSDOF 14
