REMARK  Name = ZINC95486002
REMARK  10 active torsions:
REMARK  status: ('A' for Active; 'I' for Inactive)
REMARK    1  A    between atoms: C1_1  and  C2_2
REMARK    2  A    between atoms: C3_3  and  O4_35
REMARK    3  A    between atoms: C11_12  and  C30_34
REMARK    4  A    between atoms: C14_15  and  C29_33
REMARK    5  A    between atoms: C15_16  and  C28_32
REMARK    6  A    between atoms: C18_19  and  C27_31
REMARK    7  A    between atoms: C21_23  and  C24_26
REMARK    8  A    between atoms: C21_23  and  C25_27
REMARK    9  A    between atoms: C25_27  and  O3_29
REMARK   10  A    between atoms: O3_29  and  C26_30
REMARK                            x       y       z     vdW  Elec       q    Type
REMARK                         _______ _______ _______ _____ _____    ______ ____
ROOT
ATOM      1  C   UNL     1       0.238   1.882  -0.957  0.00  0.00    +0.107 C 
ATOM      2  C   UNL     1       0.354   0.383  -0.855  0.00  0.00    -0.070 C 
ATOM      3  C   UNL     1       0.457  -0.346  -1.999  0.00  0.00    +0.010 C 
ATOM      6  C   UNL     1       0.575  -1.754  -1.930  0.00  0.00    +0.380 C 
ATOM      7  C   UNL     1       0.655  -2.390  -0.676  0.00  0.00    -0.110 C 
ATOM      8  C   UNL     1       0.555  -1.665   0.469  0.00  0.00    +0.025 C 
ATOM      9  C   UNL     1       0.704  -2.378   1.791  0.00  0.00    +0.002 C 
ATOM     10  C   UNL     1       2.201  -2.679   1.919  0.00  0.00    +0.069 C 
ATOM     11  C   UNL     1      -0.051  -3.702   1.743  0.00  0.00    +0.045 C 
ATOM     12  C   UNL     1      -0.204  -4.339   3.120  0.00  0.00    +0.027 C 
ATOM     13  C   UNL     1      -0.877  -3.373   4.103  0.00  0.00    -0.027 C 
ATOM     14  C   UNL     1      -2.183  -2.910   3.446  0.00  0.00    +0.026 C 
ATOM     15  C   UNL     1       0.048  -2.165   4.302  0.00  0.00    -0.014 C 
ATOM     16  C   UNL     1       1.392  -2.590   4.899  0.00  0.00    +0.046 C 
ATOM     17  C   UNL     1      -0.610  -1.187   5.275  0.00  0.00    +0.027 C 
ATOM     18  C   UNL     1      -0.792  -1.855   6.638  0.00  0.00    +0.023 C 
ATOM     19  C   UNL     1      -1.637  -3.123   6.533  0.00  0.00    -0.048 C 
ATOM     20  C   UNL     1      -3.107  -2.735   6.386  0.00  0.00    +0.025 C 
ATOM     21  C   UNL     1      -1.494  -3.909   7.853  0.00  0.00    +0.028 C 
ATOM     22  C   UNL     1      -2.365  -5.157   7.821  0.00  0.00    +0.032 C 
ATOM     23  C   UNL     1      -2.102  -6.045   6.613  0.00  0.00    -0.034 C 
ATOM     28  C   UNL     1      -0.784  -6.805   6.798  0.00  0.00    +0.061 C 
ATOM     29  C   UNL     1      -2.068  -5.255   5.306  0.00  0.00    +0.054 C 
ATOM     30  C   UNL     1      -1.142  -4.049   5.432  0.00  0.00    +0.015 C 
ATOM     31  C   UNL     1       0.250  -1.530   2.943  0.00  0.00    -0.001 C 
ATOM     32  C   UNL     1       0.014  -0.219   2.805  0.00  0.00    -0.051 C 
ATOM     33  C   UNL     1       0.110   0.447   1.576  0.00  0.00    +0.151 C 
ATOM     34  O   UNL     1       0.616  -2.418  -2.955  0.00  0.00    -0.489 OA
ATOM     35  C   UNL     1       0.340  -0.269   0.401  0.00  0.00    -0.106 C 
ENDROOT
BRANCH   3   4
ATOM      4  O   UNL     1       0.446   0.281  -3.206  0.00  0.00    -0.464 OA
ATOM      5  H   UNL     1       0.524  -0.318  -3.961  0.00  0.00    +0.402 HD
ENDBRANCH   3   4
BRANCH  23  24
ATOM     24  C   UNL     1      -3.221  -7.066   6.517  0.00  0.00    +0.460 C 
ATOM     27  O   UNL     1      -3.894  -7.132   5.516  0.00  0.00    -0.503 OA
BRANCH  24  25
ATOM     25  O   UNL     1      -3.463  -7.894   7.545  0.00  0.00    -0.351 OA
ATOM     26  C   UNL     1      -4.532  -8.830   7.386  0.00  0.00    +0.254 C 
ENDBRANCH  24  25
ENDBRANCH  23  24
TORSDOF 3
