REMARK  Name = ZINC95485942
REMARK  7 active torsions:
REMARK  status: ('A' for Active; 'I' for Inactive)
REMARK    1  A    between atoms: C1_1  and  C2_2
REMARK    2  A    between atoms: C4_4  and  O9_41
REMARK    3  A    between atoms: C10_17  and  C11_19
REMARK    4  A    between atoms: C18_29  and  C25_40
REMARK    5  A    between atoms: C19_30  and  O8_39
REMARK    6  A    between atoms: C22_36  and  C23_37
REMARK    7  A    between atoms: C22_36  and  C24_38
REMARK                            x       y       z     vdW  Elec       q    Type
REMARK                         _______ _______ _______ _____ _____    ______ ____
ROOT
ATOM      1  C   UNL     1       0.990   0.233   0.428  0.00  0.00    +0.060 C 
ATOM      2  C   UNL     1       1.046  -1.268   0.716  0.00  0.00    -0.061 C 
ATOM      3  C   UNL     1      -0.250  -1.638   1.426  0.00  0.00    +0.020 C 
ATOM      4  C   UNL     1      -0.364  -0.817   2.719  0.00  0.00    +0.241 C 
ATOM      7  C   UNL     1       0.807  -1.135   3.639  0.00  0.00    +0.052 C 
ATOM      8  C   UNL     1       2.133  -0.741   2.968  0.00  0.00    +0.012 C 
ATOM      9  C   UNL     1       3.228  -1.157   3.924  0.00  0.00    +0.363 C 
ATOM     10  C   UNL     1       3.196  -0.550   5.306  0.00  0.00    +0.035 C 
ATOM     11  C   UNL     1       1.808  -0.731   5.946  0.00  0.00    +0.021 C 
ATOM     12  C   UNL     1       1.785   0.055   7.224  0.00  0.00    +0.150 C 
ATOM     13  C   UNL     1       0.337   0.187   7.700  0.00  0.00    +0.041 C 
ATOM     14  C   UNL     1       2.587  -0.701   8.286  0.00  0.00    +0.089 C 
ATOM     15  O   UNL     1       2.371   1.383   7.035  0.00  0.00    -0.362 OA
ATOM     16  C   UNL     1       1.661   2.245   6.356  0.00  0.00    +0.488 C 
ATOM     17  O   UNL     1       1.341   3.281   6.888  0.00  0.00    -0.461 OA
ATOM     18  C   UNL     1       1.222   1.996   4.927  0.00  0.00    +0.005 C 
ATOM     19  C   UNL     1       0.125   0.939   4.940  0.00  0.00    +0.200 C 
ATOM     22  O   UNL     1       4.088  -1.939   3.597  0.00  0.00    -0.420 OA
ATOM     23  C   UNL     1       0.712  -0.461   4.978  0.00  0.00    -0.058 C 
ATOM     24  C   UNL     1      -0.440  -1.234   5.623  0.00  0.00    +0.034 C 
ATOM     25  C   UNL     1       1.215  -1.970  -0.610  0.00  0.00    +0.332 C 
ATOM     31  O   UNL     1       2.490  -1.622  -1.202  0.00  0.00    -0.338 OA
ATOM     32  C   UNL     1       3.606  -1.876  -0.509  0.00  0.00    +0.496 C 
ATOM     33  O   UNL     1       4.618  -2.204  -1.082  0.00  0.00    -0.430 OA
ATOM     34  C   UNL     1       3.589  -1.750   1.002  0.00  0.00    +0.118 C 
ATOM     35  O   UNL     1       2.856  -2.782   1.686  0.00  0.00    -0.284 OA
ATOM     36  C   UNL     1       2.231  -1.502   1.648  0.00  0.00    +0.060 C 
ENDROOT
BRANCH  25  26
ATOM     26  C   UNL     1       1.091  -3.457  -0.397  0.00  0.00    -0.226 A 
ATOM     27  C   UNL     1      -0.109  -4.202  -0.332  0.00  0.00    -0.040 A 
ATOM     28  C   UNL     1       0.239  -5.486  -0.133  0.00  0.00    +0.169 A 
ATOM     29  O   UNL     1       1.579  -5.558  -0.074  0.00  0.00    -0.168 OA
ATOM     30  C   UNL     1       2.101  -4.331  -0.238  0.00  0.00    +0.197 A 
ENDBRANCH  25  26
BRANCH   4   5
ATOM      5  O   UNL     1      -1.587  -1.142   3.382  0.00  0.00    -0.546 OA
ATOM      6  H   UNL     1      -2.379  -0.960   2.857  0.00  0.00    +0.370 HD
ENDBRANCH   4   5
BRANCH  19  20
ATOM     20  O   UNL     1      -0.674   1.080   3.764  0.00  0.00    -0.519 OA
ATOM     21  H   UNL     1      -1.084   1.950   3.669  0.00  0.00    +0.363 HD
ENDBRANCH  19  20
TORSDOF 3
