REMARK  Name = ZINC95486330
REMARK  10 active torsions:
REMARK  status: ('A' for Active; 'I' for Inactive)
REMARK    1  A    between atoms: C1_1  and  C2_2
REMARK    2  A    between atoms: C2_2  and  C23_30
REMARK    3  A    between atoms: C10_10  and  O1_11
REMARK    4  A    between atoms: C12_14  and  C14_17
REMARK    5  A    between atoms: C16_19  and  O6_27
REMARK    6  A    between atoms: C17_20  and  O5_25
REMARK    7  A    between atoms: C19_22  and  O4_23
REMARK    8  A    between atoms: O4_23  and  C20_24
REMARK    9  A    between atoms: O5_25  and  C21_26
REMARK   10  A    between atoms: O6_27  and  C22_28
REMARK                            x       y       z     vdW  Elec       q    Type
REMARK                         _______ _______ _______ _____ _____    ______ ____
ROOT
ATOM      1  C   UNL     1      -0.019   1.526   0.010  0.00  0.00    +0.039 C 
ATOM      2  C   UNL     1       0.002  -0.004   0.002  0.00  0.00    +0.146 C 
ATOM      3  C   UNL     1      -1.435  -0.528   0.027  0.00  0.00    +0.088 C 
ATOM      4  C   UNL     1       0.683  -0.484  -1.252  0.00  0.00    -0.049 C 
ATOM      5  C   UNL     1       2.003  -0.665  -1.265  0.00  0.00    +0.057 C 
ATOM      6  C   UNL     1       2.754  -0.393  -0.022  0.00  0.00    -0.190 A 
ATOM      7  C   UNL     1       2.040  -0.303   1.187  0.00  0.00    +0.211 A 
ATOM      8  C   UNL     1       2.702  -0.047   2.372  0.00  0.00    -0.025 A 
ATOM      9  C   UNL     1       4.082   0.122   2.380  0.00  0.00    +0.196 A 
ATOM     10  C   UNL     1       4.799   0.025   1.172  0.00  0.00    -0.277 A 
ATOM     11  C   UNL     1       6.262   0.191   1.220  0.00  0.00    +0.436 A 
ATOM     12  C   UNL     1       6.873   0.160   2.563  0.00  0.00    -0.218 A 
ATOM     25  C   UNL     1       6.053   0.250   3.642  0.00  0.00    +0.329 A 
ATOM     26  O   UNL     1       6.929   0.343   0.210  0.00  0.00    -0.440 OA
ATOM     27  O   UNL     1       4.728   0.380   3.534  0.00  0.00    -0.213 OA
ATOM     28  C   UNL     1       4.136  -0.227  -0.034  0.00  0.00    +0.245 A 
ATOM     31  O   UNL     1       0.694  -0.472   1.161  0.00  0.00    -0.295 OA
ENDROOT
BRANCH  12  13
ATOM     13  C   UNL     1       8.341   0.035   2.731  0.00  0.00    -0.059 A 
ATOM     14  C   UNL     1       8.967  -1.192   2.513  0.00  0.00    +0.032 A 
ATOM     15  C   UNL     1      10.336  -1.305   2.670  0.00  0.00    +0.067 A 
ATOM     18  C   UNL     1      11.090  -0.196   3.044  0.00  0.00    +0.149 A 
ATOM     21  C   UNL     1      10.472   1.025   3.261  0.00  0.00    -0.117 A 
ATOM     22  C   UNL     1       9.102   1.147   3.101  0.00  0.00    +0.152 A 
BRANCH  15  16
ATOM     16  O   UNL     1      10.948  -2.502   2.458  0.00  0.00    -0.305 OA
ATOM     17  C   UNL     1      10.114  -3.598   2.077  0.00  0.00    +0.236 C 
ENDBRANCH  15  16
BRANCH  18  19
ATOM     19  O   UNL     1      12.437  -0.311   3.196  0.00  0.00    -0.300 OA
ATOM     20  C   UNL     1      13.149   0.867   3.582  0.00  0.00    +0.239 C 
ENDBRANCH  18  19
BRANCH  22  23
ATOM     23  O   UNL     1       8.496   2.347   3.308  0.00  0.00    -0.307 OA
ATOM     24  C   UNL     1       9.335   3.441   3.684  0.00  0.00    +0.240 C 
ENDBRANCH  22  23
ENDBRANCH  12  13
BRANCH  28  29
ATOM     29  O   UNL     1       4.829  -0.309  -1.197  0.00  0.00    -0.472 OA
ATOM     30  H   UNL     1       4.924   0.536  -1.658  0.00  0.00    +0.405 HD
ENDBRANCH  28  29
TORSDOF 5
