REMARK  Name = ZINC38939738
REMARK  8 active torsions:
REMARK  status: ('A' for Active; 'I' for Inactive)
REMARK    1  A    between atoms: C1_1  and  C2_2
REMARK    2  A    between atoms: C3_3  and  O3_33
REMARK    3  A    between atoms: C11_12  and  C28_32
REMARK    4  A    between atoms: C14_15  and  C27_31
REMARK    5  A    between atoms: C15_16  and  C26_30
REMARK    6  A    between atoms: C18_19  and  C25_29
REMARK    7  A    between atoms: C21_23  and  C24_27
REMARK    8  A    between atoms: C24_27  and  O2_28
REMARK                            x       y       z     vdW  Elec       q    Type
REMARK                         _______ _______ _______ _____ _____    ______ ____
ROOT
ATOM      1  C   UNL     1      -0.019   2.067   0.270  0.00  0.00    +0.107 C 
ATOM      2  C   UNL     1       0.109   0.566   0.265  0.00  0.00    -0.069 C 
ATOM      3  C   UNL     1       0.204  -0.081  -0.929  0.00  0.00    +0.009 C 
ATOM      6  C   UNL     1       0.333  -1.489  -0.959  0.00  0.00    +0.379 C 
ATOM      7  C   UNL     1       0.430  -2.211   0.246  0.00  0.00    -0.111 C 
ATOM      8  C   UNL     1       0.340  -1.568   1.440  0.00  0.00    +0.025 C 
ATOM      9  C   UNL     1       0.507  -2.371   2.707  0.00  0.00    +0.002 C 
ATOM     10  C   UNL     1       2.007  -2.663   2.808  0.00  0.00    +0.069 C 
ATOM     11  C   UNL     1      -0.234  -3.697   2.566  0.00  0.00    +0.044 C 
ATOM     12  C   UNL     1      -0.389  -4.426   3.898  0.00  0.00    +0.026 C 
ATOM     13  C   UNL     1      -1.076  -3.533   4.935  0.00  0.00    -0.028 C 
ATOM     14  C   UNL     1      -2.369  -3.014   4.290  0.00  0.00    +0.022 C 
ATOM     15  C   UNL     1      -0.153  -2.344   5.228  0.00  0.00    -0.015 C 
ATOM     16  C   UNL     1       1.189  -2.807   5.796  0.00  0.00    +0.046 C 
ATOM     17  C   UNL     1      -0.819  -1.435   6.261  0.00  0.00    +0.026 C 
ATOM     18  C   UNL     1      -1.012  -2.202   7.567  0.00  0.00    +0.019 C 
ATOM     19  C   UNL     1      -1.878  -3.448   7.360  0.00  0.00    -0.038 C 
ATOM     20  C   UNL     1      -1.768  -4.283   8.657  0.00  0.00    +0.016 C 
ATOM     21  C   UNL     1      -3.329  -3.025   7.198  0.00  0.00    +0.013 C 
ATOM     22  C   UNL     1      -4.268  -4.189   6.993  0.00  0.00    +0.018 C 
ATOM     23  C   UNL     1      -3.734  -5.406   6.287  0.00  0.00    -0.006 C 
ATOM     27  C   UNL     1      -2.271  -5.501   5.956  0.00  0.00    +0.019 C 
ATOM     28  C   UNL     1      -1.386  -4.299   6.208  0.00  0.00    +0.015 C 
ATOM     29  C   UNL     1       0.049  -1.612   3.917  0.00  0.00    -0.000 C 
ATOM     30  C   UNL     1      -0.194  -0.295   3.875  0.00  0.00    -0.052 C 
ATOM     31  C   UNL     1      -0.106   0.458   2.697  0.00  0.00    +0.153 C 
ATOM     32  O   UNL     1       0.367  -2.079  -2.030  0.00  0.00    -0.490 OA
ATOM     33  C   UNL     1       0.114  -0.172   1.471  0.00  0.00    -0.107 C 
ENDROOT
BRANCH   3   4
ATOM      4  O   UNL     1       0.175   0.629  -2.088  0.00  0.00    -0.464 OA
ATOM      5  H   UNL     1       0.248   0.085  -2.884  0.00  0.00    +0.402 HD
ENDBRANCH   3   4
BRANCH  23  24
ATOM     24  C   UNL     1      -4.563  -5.654   5.009  0.00  0.00    +0.162 C 
BRANCH  24  25
ATOM     25  O   UNL     1      -5.953  -5.679   5.340  0.00  0.00    -0.573 OA
ATOM     26  H   UNL     1      -6.535  -5.831   4.583  0.00  0.00    +0.380 HD
ENDBRANCH  24  25
ENDBRANCH  23  24
TORSDOF 3
