REMARK  Name = ZINC95486028
REMARK  7 active torsions:
REMARK  status: ('A' for Active; 'I' for Inactive)
REMARK    1  A    between atoms: C1_1  and  C2_2
REMARK    2  A    between atoms: C2_2  and  C3_4
REMARK    3  A    between atoms: C4_5  and  C5_6
REMARK    4  A    between atoms: C12_15  and  C13_16
REMARK    5  A    between atoms: C13_16  and  C14_17
REMARK    6  A    between atoms: C13_16  and  C15_18
REMARK    7  A    between atoms: C13_16  and  C16_19
REMARK                            x       y       z     vdW  Elec       q    Type
REMARK                         _______ _______ _______ _____ _____    ______ ____
ROOT
ATOM      5  C   UNL     1       0.016  -2.784  -2.503  0.00  0.00    -0.072 A 
ATOM      6  C   UNL     1       0.001  -2.072  -3.715  0.00  0.00    +0.008 A 
ATOM      7  C   UNL     1      -0.001  -2.736  -4.902  0.00  0.00    +0.050 A 
ATOM      8  C   UNL     1       0.012  -4.136  -4.922  0.00  0.00    -0.077 A 
ATOM      9  C   UNL     1       0.028  -4.862  -3.714  0.00  0.00    +0.086 A 
ATOM     10  N   UNL     1       0.038  -6.200  -4.045  0.00  0.00    -0.592 N 
ATOM     11  C   UNL     1       0.029  -6.342  -5.403  0.00  0.00    +0.233 A 
ATOM     12  H   UNL     1       0.049  -6.932  -3.408  0.00  0.00    +0.418 HD
ATOM     13  C   UNL     1       0.013  -5.133  -5.991  0.00  0.00    -0.156 A 
ATOM     19  C   UNL     1       0.035  -4.181  -2.507  0.00  0.00    +0.034 A 
ENDROOT
BRANCH  13  14
ATOM     14  C   UNL     1      -0.001  -4.857  -7.473  0.00  0.00    +0.038 C 
ATOM     17  C   UNL     1      -1.261  -4.067  -7.832  0.00  0.00    +0.039 C 
ATOM     18  C   UNL     1       0.006  -6.182  -8.238  0.00  0.00    +0.035 C 
BRANCH  14  15
ATOM     15  C   UNL     1       1.219  -4.055  -7.846  0.00  0.00    -0.029 C 
ATOM     16  C   UNL     1       2.079  -4.535  -8.710  0.00  0.00    -0.001 C 
ENDBRANCH  14  15
ENDBRANCH  13  14
BRANCH   5   4
ATOM      3  C   UNL     1       0.000  -0.701  -1.221  0.00  0.00    -0.123 C 
ATOM      4  C   UNL     1       0.018  -2.057  -1.228  0.00  0.00    +0.142 C 
BRANCH   3   2
ATOM      1  C   UNL     1      -0.018   1.503   0.010  0.00  0.00    +0.060 C 
ATOM      2  C   UNL     1       0.002  -0.004   0.002  0.00  0.00    +0.380 C 
ATOM     20  O   UNL     1       0.020  -0.617   1.051  0.00  0.00    -0.476 OA
ENDBRANCH   3   2
ENDBRANCH   5   4
TORSDOF 4
