REMARK  Name = ZINC95486176
REMARK  13 active torsions:
REMARK  status: ('A' for Active; 'I' for Inactive)
REMARK    1  A    between atoms: C1_1  and  C2_2
REMARK    2  A    between atoms: C6_7  and  C30_46
REMARK    3  A    between atoms: C7_8  and  C28_42
REMARK    4  A    between atoms: C9_11  and  C26_38
REMARK    5  A    between atoms: C10_13  and  C24_36
REMARK    6  A    between atoms: C10_13  and  C25_37
REMARK    7  A    between atoms: C13_17  and  O5_35
REMARK    8  A    between atoms: C14_19  and  C23_34
REMARK    9  A    between atoms: C18_27  and  C19_29
REMARK   10  A    between atoms: C26_38  and  O7_40
REMARK   11  A    between atoms: O7_40  and  C27_41
REMARK   12  A    between atoms: C28_42  and  O9_44
REMARK   13  A    between atoms: O9_44  and  C29_45
REMARK                            x       y       z     vdW  Elec       q    Type
REMARK                         _______ _______ _______ _____ _____    ______ ____
ROOT
ATOM      1  C   UNL     1       1.838   2.692  -3.384  0.00  0.00    +0.051 C 
ATOM      2  C   UNL     1       2.740   1.621  -4.019  0.00  0.00    -0.059 C 
ATOM      3  C   UNL     1       4.090   2.248  -4.329  0.00  0.00    +0.048 C 
ATOM      4  C   UNL     1       4.938   2.540  -3.106  0.00  0.00    +0.019 C 
ATOM      5  C   UNL     1       4.733   1.602  -1.928  0.00  0.00    +0.019 C 
ATOM      6  C   UNL     1       5.901   1.573  -0.970  0.00  0.00    -0.018 C 
ATOM      7  C   UNL     1       7.177   1.035  -1.651  0.00  0.00    +0.043 C 
ATOM      8  C   UNL     1       6.289   2.942  -0.405  0.00  0.00    +0.024 C 
ATOM     13  C   UNL     1       5.126   3.527   0.391  0.00  0.00    +0.079 C 
ATOM     14  C   UNL     1       5.020   2.683   1.665  0.00  0.00    +0.041 C 
ATOM     19  C   UNL     1       4.709   1.226   1.305  0.00  0.00    -0.034 C 
ATOM     20  C   UNL     1       3.218   1.135   0.980  0.00  0.00    +0.035 C 
ATOM     21  C   UNL     1       4.941   0.406   2.599  0.00  0.00    +0.027 C 
ATOM     22  C   UNL     1       5.603   0.664   0.225  0.00  0.00    +0.015 C 
ATOM     23  C   UNL     1       5.225  -0.730  -0.230  0.00  0.00    +0.014 C 
ATOM     24  C   UNL     1       4.169  -0.814  -1.311  0.00  0.00    +0.155 C 
ATOM     27  C   UNL     1       4.237   0.243  -2.393  0.00  0.00    +0.009 C 
ATOM     28  C   UNL     1       5.142  -0.332  -3.505  0.00  0.00    +0.050 C 
ATOM     29  C   UNL     1       2.076   1.200  -5.324  0.00  0.00    +0.275 C 
ATOM     35  O   UNL     1       0.959   0.350  -5.150  0.00  0.00    -0.350 OA
ATOM     36  C   UNL     1       1.130  -0.801  -4.487  0.00  0.00    +0.507 C 
ATOM     37  O   UNL     1       0.622  -1.824  -4.873  0.00  0.00    -0.430 OA
ATOM     38  C   UNL     1       1.979  -0.776  -3.240  0.00  0.00    +0.102 C 
ATOM     39  O   UNL     1       1.687   0.207  -2.250  0.00  0.00    -0.263 OA
ATOM     40  C   UNL     1       2.855   0.460  -3.037  0.00  0.00    +0.064 C 
ENDROOT
BRANCH  29  30
ATOM     30  C   UNL     1       1.621   2.439  -6.052  0.00  0.00    -0.189 A 
ATOM     31  C   UNL     1       2.280   3.073  -7.130  0.00  0.00    -0.046 A 
ATOM     32  C   UNL     1       1.531   4.136  -7.474  0.00  0.00    +0.170 A 
ATOM     33  O   UNL     1       0.459   4.179  -6.666  0.00  0.00    -0.172 OA
ATOM     34  C   UNL     1       0.505   3.150  -5.806  0.00  0.00    +0.209 A 
ENDBRANCH  29  30
BRANCH   8   9
ATOM      9  C   UNL     1       6.842   3.902  -1.399  0.00  0.00    +0.477 C 
ATOM     12  O   UNL     1       6.414   5.031  -1.452  0.00  0.00    -0.499 OA
BRANCH   9  10
ATOM     10  O   UNL     1       7.816   3.514  -2.237  0.00  0.00    -0.346 OA
ATOM     11  C   UNL     1       8.299   4.488  -3.165  0.00  0.00    +0.251 C 
ENDBRANCH   9  10
ENDBRANCH   8   9
BRANCH  14  15
ATOM     15  C   UNL     1       3.920   3.228   2.538  0.00  0.00    +0.472 C 
ATOM     18  O   UNL     1       3.389   2.514   3.356  0.00  0.00    -0.495 OA
BRANCH  15  16
ATOM     16  O   UNL     1       3.531   4.505   2.408  0.00  0.00    -0.349 OA
ATOM     17  C   UNL     1       2.482   4.955   3.269  0.00  0.00    +0.256 C 
ENDBRANCH  15  16
ENDBRANCH  14  15
BRANCH  24  25
ATOM     25  O   UNL     1       2.877  -0.982  -0.737  0.00  0.00    -0.537 OA
ATOM     26  H   UNL     1       2.787  -1.782  -0.201  0.00  0.00    +0.375 HD
ENDBRANCH  24  25
TORSDOF 6
