REMARK  Name = ZINC15121588
REMARK  8 active torsions:
REMARK  status: ('A' for Active; 'I' for Inactive)
REMARK    1  A    between atoms: C1_1  and  C2_2
REMARK    2  A    between atoms: C8_8  and  O3_27
REMARK    3  A    between atoms: C10_10  and  O2_26
REMARK    4  A    between atoms: C11_11  and  C12_12
REMARK    5  A    between atoms: C17_17  and  O1_18
REMARK    6  A    between atoms: C18_19  and  C22_25
REMARK    7  A    between atoms: C19_21  and  C21_24
REMARK    8  A    between atoms: O3_27  and  C23_28
REMARK                            x       y       z     vdW  Elec       q    Type
REMARK                         _______ _______ _______ _____ _____    ______ ____
ROOT
ATOM     16  C   UNL     1       3.954   3.131   0.002  0.00  0.00    -0.029 A 
ATOM     17  C   UNL     1       2.865   3.922   0.363  0.00  0.00    +0.079 A 
ATOM     18  C   UNL     1       1.597   3.384   0.359  0.00  0.00    +0.029 A 
ATOM     19  C   UNL     1       1.391   2.059  -0.000  0.00  0.00    -0.076 A 
ATOM     20  C   UNL     1       2.462   1.265  -0.356  0.00  0.00    -0.154 A 
ATOM     21  C   UNL     1       2.286  -0.179  -0.747  0.00  0.00    +0.235 C 
ATOM     22  N   UNL     1       0.884  -0.455  -1.090  0.00  0.00    -0.511 N 
ATOM     23  H   UNL     1       0.640   0.045  -1.953  0.00  0.00    +0.432 HD
ATOM     24  H   UNL     1       0.761  -1.464  -1.233  0.00  0.00    +0.435 HD
ATOM     25  C   UNL     1       0.002  -0.004   0.002  0.00  0.00    +0.171 C 
ATOM     26  C   UNL     1      -1.413  -0.536  -0.233  0.00  0.00    +0.094 C 
ATOM     27  C   UNL     1       2.708  -1.073   0.420  0.00  0.00    +0.098 C 
ATOM     28  C   UNL     1      -0.019   1.525   0.010  0.00  0.00    +0.130 C 
ATOM     29  C   UNL     1       3.746   1.798  -0.358  0.00  0.00    +0.142 A 
ENDROOT
BRANCH  16  15
ATOM      1  C   UNL     1       4.969   4.354  -2.401  0.00  0.00    +0.093 C 
ATOM      2  C   UNL     1       5.827   4.298  -1.164  0.00  0.00    -0.046 A 
ATOM      3  C   UNL     1       7.076   4.832  -1.190  0.00  0.00    +0.013 A 
ATOM      4  C   UNL     1       7.889   4.781  -0.043  0.00  0.00    +0.008 A 
ATOM      5  C   UNL     1       9.186   5.322  -0.052  0.00  0.00    -0.022 A 
ATOM      6  C   UNL     1       9.956   5.261   1.069  0.00  0.00    +0.073 A 
ATOM      7  C   UNL     1       9.481   4.668   2.236  0.00  0.00    -0.093 A 
ATOM      8  C   UNL     1       8.216   4.126   2.285  0.00  0.00    +0.157 A 
ATOM     11  C   UNL     1       7.396   4.175   1.139  0.00  0.00    -0.104 A 
ATOM     12  C   UNL     1       6.099   3.632   1.151  0.00  0.00    +0.179 A 
ATOM     15  C   UNL     1       5.322   3.700   0.001  0.00  0.00    -0.109 A 
BRANCH   8   9
ATOM      9  O   UNL     1       7.762   3.550   3.428  0.00  0.00    -0.298 OA
ATOM     10  C   UNL     1       8.651   3.539   4.546  0.00  0.00    +0.245 C 
ENDBRANCH   8   9
BRANCH  12  13
ATOM     13  O   UNL     1       5.610   3.048   2.274  0.00  0.00    -0.475 OA
ATOM     14  H   UNL     1       5.791   2.101   2.336  0.00  0.00    +0.391 HD
ENDBRANCH  12  13
ENDBRANCH  16  15
BRANCH  29  30
ATOM     30  O   UNL     1       4.802   1.019  -0.710  0.00  0.00    -0.487 OA
ATOM     31  H   UNL     1       5.005   1.037  -1.656  0.00  0.00    +0.396 HD
ENDBRANCH  29  30
TORSDOF 4
