REMARK  Name = ZINC95485943
REMARK  6 active torsions:
REMARK  status: ('A' for Active; 'I' for Inactive)
REMARK    1  A    between atoms: C1_1  and  C2_2
REMARK    2  A    between atoms: C4_4  and  O9_40
REMARK    3  A    between atoms: C10_17  and  C11_19
REMARK    4  A    between atoms: C18_29  and  C25_39
REMARK    5  A    between atoms: C22_35  and  C23_36
REMARK    6  A    between atoms: C22_35  and  C24_37
REMARK                            x       y       z     vdW  Elec       q    Type
REMARK                         _______ _______ _______ _____ _____    ______ ____
ROOT
ATOM      1  C   UNL     1      -1.133   2.116   0.572  0.00  0.00    +0.062 C 
ATOM      2  C   UNL     1      -1.057   0.639   0.181  0.00  0.00    -0.064 C 
ATOM      3  C   UNL     1      -2.047  -0.114   1.063  0.00  0.00    +0.045 C 
ATOM      4  C   UNL     1      -1.665   0.093   2.535  0.00  0.00    +0.181 C 
ATOM      7  C   UNL     1      -0.268  -0.453   2.789  0.00  0.00    +0.068 C 
ATOM      8  C   UNL     1       0.762   0.315   1.945  0.00  0.00    +0.020 C 
ATOM      9  C   UNL     1       2.107  -0.318   2.215  0.00  0.00    +0.368 C 
ATOM     10  C   UNL     1       2.572  -0.361   3.654  0.00  0.00    +0.039 C 
ATOM     11  C   UNL     1       1.486  -0.985   4.542  0.00  0.00    +0.044 C 
ATOM     12  C   UNL     1       1.938  -0.805   6.002  0.00  0.00    +0.147 C 
ATOM     13  C   UNL     1       3.104  -1.754   6.284  0.00  0.00    +0.087 C 
ATOM     14  C   UNL     1       2.409   0.636   6.205  0.00  0.00    +0.022 C 
ATOM     15  O   UNL     1       0.912  -1.033   6.907  0.00  0.00    -0.363 OA
ATOM     16  C   UNL     1       0.137   0.010   7.241  0.00  0.00    +0.500 C 
ATOM     17  O   UNL     1       0.382   0.613   8.259  0.00  0.00    -0.437 OA
ATOM     18  C   UNL     1      -1.005   0.451   6.415  0.00  0.00    +0.082 C 
ATOM     19  C   UNL     1      -0.416   0.707   5.021  0.00  0.00    +0.400 C 
ATOM     20  O   UNL     1      -0.407   1.827   4.569  0.00  0.00    -0.430 OA
ATOM     21  O   UNL     1       2.782  -0.769   1.321  0.00  0.00    -0.420 OA
ATOM     22  C   UNL     1       0.136  -0.396   4.238  0.00  0.00    -0.123 C 
ATOM     23  C   UNL     1      -0.740  -1.533   4.768  0.00  0.00    +0.049 C 
ATOM     24  C   UNL     1      -1.393   0.545  -1.288  0.00  0.00    +0.334 C 
ATOM     30  O   UNL     1      -0.381   1.212  -2.080  0.00  0.00    -0.337 OA
ATOM     31  C   UNL     1       0.888   0.806  -1.970  0.00  0.00    +0.496 C 
ATOM     32  O   UNL     1       1.620   0.825  -2.931  0.00  0.00    -0.429 OA
ATOM     33  C   UNL     1       1.399   0.319  -0.627  0.00  0.00    +0.127 C 
ATOM     34  O   UNL     1       0.886  -0.963  -0.219  0.00  0.00    -0.286 OA
ATOM     35  C   UNL     1       0.362   0.164   0.479  0.00  0.00    +0.056 C 
ENDROOT
BRANCH  24  25
ATOM     25  C   UNL     1      -1.525  -0.906  -1.670  0.00  0.00    -0.228 A 
ATOM     26  C   UNL     1      -2.670  -1.720  -1.507  0.00  0.00    -0.041 A 
ATOM     27  C   UNL     1      -2.353  -2.939  -1.978  0.00  0.00    +0.171 A 
ATOM     28  O   UNL     1      -1.083  -2.907  -2.416  0.00  0.00    -0.168 OA
ATOM     29  C   UNL     1      -0.578  -1.676  -2.236  0.00  0.00    +0.198 A 
ENDBRANCH  24  25
BRANCH   4   5
ATOM      5  O   UNL     1      -2.600  -0.595   3.369  0.00  0.00    -0.551 OA
ATOM      6  H   UNL     1      -3.514  -0.295   3.266  0.00  0.00    +0.378 HD
ENDBRANCH   4   5
TORSDOF 2
