MODEL 1
REMARK VINA RESULT:      -6.7      0.000      0.000
REMARK  Name = ZINC43069427
REMARK  7 active torsions:
REMARK  status: ('A' for Active; 'I' for Inactive)
REMARK    1  A    between atoms: C1_1  and  C2_2
REMARK    2  A    between atoms: C2_2  and  C20_24
REMARK    3  A    between atoms: C7_7  and  C11_12
REMARK    4  A    between atoms: C12_13  and  C13_14
REMARK    5  A    between atoms: C13_14  and  C14_16
REMARK    6  A    between atoms: C17_19  and  O4_23
REMARK    7  A    between atoms: C19_21  and  O3_22
REMARK                            x       y       z     vdW  Elec       q    Type
REMARK                         _______ _______ _______ _____ _____    ______ ____
ROOT
ATOM      9  C   UNL     1      45.040  18.178  19.304  0.00  0.00    +0.133 C 
ATOM     10  C   UNL     1      44.433  18.603  20.434  0.00  0.00    -0.110 C 
ENDROOT
BRANCH   9   8
ATOM      1  C   UNL     1      47.304  10.927  17.472  0.00  0.00    +0.083 C 
ATOM      2  C   UNL     1      46.597  12.284  17.460  0.00  0.00    +0.146 C 
ATOM      3  C   UNL     1      45.168  12.104  16.944  0.00  0.00    +0.035 C 
ATOM      4  C   UNL     1      47.340  13.222  16.546  0.00  0.00    -0.048 C 
ATOM      5  C   UNL     1      47.306  14.534  16.768  0.00  0.00    +0.039 C 
ATOM      6  C   UNL     1      46.536  15.022  17.933  0.00  0.00    -0.136 A 
ATOM      7  C   UNL     1      46.166  16.353  18.048  0.00  0.00    +0.092 A 
ATOM      8  C   UNL     1      45.438  16.770  19.168  0.00  0.00    -0.113 A 
ATOM     23  C   UNL     1      45.090  15.844  20.160  0.00  0.00    +0.076 A 
ATOM     24  C   UNL     1      45.460  14.522  20.040  0.00  0.00    -0.009 A 
ATOM     25  C   UNL     1      46.181  14.101  18.933  0.00  0.00    +0.150 A 
ATOM     26  O   UNL     1      46.555  12.805  18.790  0.00  0.00    -0.303 OA
ENDBRANCH   9   8
BRANCH  10  11
ATOM     11  C   UNL     1      44.038  20.004  20.569  0.00  0.00    +0.423 C 
ATOM     22  O   UNL     1      44.712  20.766  21.239  0.00  0.00    -0.445 OA
BRANCH  11  12
ATOM     12  C   UNL     1      42.823  20.495  19.894  0.00  0.00    -0.200 A 
ATOM     13  C   UNL     1      41.677  19.695  19.841  0.00  0.00    +0.100 A 
ATOM     14  C   UNL     1      40.545  20.157  19.210  0.00  0.00    -0.029 A 
ATOM     15  C   UNL     1      40.535  21.418  18.623  0.00  0.00    +0.156 A 
ATOM     18  C   UNL     1      41.666  22.220  18.670  0.00  0.00    -0.048 A 
ATOM     19  C   UNL     1      42.809  21.769  19.307  0.00  0.00    +0.185 A 
BRANCH  15  16
ATOM     16  O   UNL     1      39.414  21.867  18.002  0.00  0.00    -0.496 OA
ATOM     17  H   UNL     1      39.423  22.814  17.812  0.00  0.00    +0.400 HD
ENDBRANCH  15  16
BRANCH  19  20
ATOM     20  O   UNL     1      43.914  22.554  19.357  0.00  0.00    -0.479 OA
ATOM     21  H   UNL     1      43.730  23.501  19.282  0.00  0.00    +0.399 HD
ENDBRANCH  19  20
ENDBRANCH  11  12
ENDBRANCH  10  11
TORSDOF 5
ENDMDL
MODEL 2
REMARK VINA RESULT:      -6.6      4.881      8.480
REMARK  Name = ZINC43069427
REMARK  7 active torsions:
REMARK  status: ('A' for Active; 'I' for Inactive)
REMARK    1  A    between atoms: C1_1  and  C2_2
REMARK    2  A    between atoms: C2_2  and  C20_24
REMARK    3  A    between atoms: C7_7  and  C11_12
REMARK    4  A    between atoms: C12_13  and  C13_14
REMARK    5  A    between atoms: C13_14  and  C14_16
REMARK    6  A    between atoms: C17_19  and  O4_23
REMARK    7  A    between atoms: C19_21  and  O3_22
REMARK                            x       y       z     vdW  Elec       q    Type
REMARK                         _______ _______ _______ _____ _____    ______ ____
ROOT
ATOM      9  C   UNL     1      48.640  20.649  18.821  0.00  0.00    +0.133 C 
ATOM     10  C   UNL     1      49.788  20.675  19.534  0.00  0.00    -0.110 C 
ENDROOT
BRANCH   9   8
ATOM      1  C   UNL     1      41.609  18.963  21.786  0.00  0.00    +0.083 C 
ATOM      2  C   UNL     1      42.755  19.243  20.812  0.00  0.00    +0.146 C 
ATOM      3  C   UNL     1      42.203  19.954  19.575  0.00  0.00    +0.035 C 
ATOM      4  C   UNL     1      43.383  17.939  20.395  0.00  0.00    -0.048 C 
ATOM      5  C   UNL     1      44.665  17.899  20.044  0.00  0.00    +0.039 C 
ATOM      6  C   UNL     1      45.439  19.160  20.092  0.00  0.00    -0.136 A 
ATOM      7  C   UNL     1      46.653  19.288  19.437  0.00  0.00    +0.092 A 
ATOM      8  C   UNL     1      47.350  20.499  19.510  0.00  0.00    -0.113 A 
ATOM     23  C   UNL     1      46.817  21.569  20.240  0.00  0.00    +0.076 A 
ATOM     24  C   UNL     1      45.608  21.437  20.888  0.00  0.00    -0.009 A 
ATOM     25  C   UNL     1      44.912  20.240  20.821  0.00  0.00    +0.150 A 
ATOM     26  O   UNL     1      43.719  20.084  21.448  0.00  0.00    -0.303 OA
ENDBRANCH   9   8
BRANCH  10  11
ATOM     11  C   UNL     1      51.070  20.823  18.848  0.00  0.00    +0.423 C 
ATOM     22  O   UNL     1      51.820  21.735  19.149  0.00  0.00    -0.445 OA
BRANCH  11  12
ATOM     12  C   UNL     1      51.457  19.868  17.794  0.00  0.00    -0.200 A 
ATOM     13  C   UNL     1      51.510  18.498  18.072  0.00  0.00    +0.100 A 
ATOM     14  C   UNL     1      51.872  17.611  17.085  0.00  0.00    -0.029 A 
ATOM     15  C   UNL     1      52.185  18.069  15.810  0.00  0.00    +0.156 A 
ATOM     18  C   UNL     1      52.136  19.426  15.523  0.00  0.00    -0.048 A 
ATOM     19  C   UNL     1      51.768  20.329  16.505  0.00  0.00    +0.185 A 
BRANCH  15  16
ATOM     16  O   UNL     1      52.541  17.187  14.842  0.00  0.00    -0.496 OA
ATOM     17  H   UNL     1      51.807  16.896  14.285  0.00  0.00    +0.400 HD
ENDBRANCH  15  16
BRANCH  19  20
ATOM     20  O   UNL     1      51.714  21.655  16.225  0.00  0.00    -0.479 OA
ATOM     21  H   UNL     1      52.025  21.883  15.338  0.00  0.00    +0.399 HD
ENDBRANCH  19  20
ENDBRANCH  11  12
ENDBRANCH  10  11
TORSDOF 5
ENDMDL
MODEL 3
REMARK VINA RESULT:      -6.5      1.090      1.841
REMARK  Name = ZINC43069427
REMARK  7 active torsions:
REMARK  status: ('A' for Active; 'I' for Inactive)
REMARK    1  A    between atoms: C1_1  and  C2_2
REMARK    2  A    between atoms: C2_2  and  C20_24
REMARK    3  A    between atoms: C7_7  and  C11_12
REMARK    4  A    between atoms: C12_13  and  C13_14
REMARK    5  A    between atoms: C13_14  and  C14_16
REMARK    6  A    between atoms: C17_19  and  O4_23
REMARK    7  A    between atoms: C19_21  and  O3_22
REMARK                            x       y       z     vdW  Elec       q    Type
REMARK                         _______ _______ _______ _____ _____    ______ ____
ROOT
ATOM      9  C   UNL     1      44.989  17.667  19.583  0.00  0.00    +0.133 C 
ATOM     10  C   UNL     1      44.888  18.942  19.147  0.00  0.00    -0.110 C 
ENDROOT
BRANCH   9   8
ATOM      1  C   UNL     1      48.527  11.636  16.093  0.00  0.00    +0.083 C 
ATOM      2  C   UNL     1      48.151  12.729  17.096  0.00  0.00    +0.146 C 
ATOM      3  C   UNL     1      49.418  13.233  17.791  0.00  0.00    +0.035 C 
ATOM      4  C   UNL     1      47.215  12.155  18.128  0.00  0.00    -0.048 C 
ATOM      5  C   UNL     1      46.331  12.942  18.735  0.00  0.00    +0.039 C 
ATOM      6  C   UNL     1      46.294  14.371  18.354  0.00  0.00    -0.136 A 
ATOM      7  C   UNL     1      45.664  15.314  19.150  0.00  0.00    +0.092 A 
ATOM      8  C   UNL     1      45.654  16.655  18.750  0.00  0.00    -0.113 A 
ATOM     23  C   UNL     1      46.279  17.033  17.554  0.00  0.00    +0.076 A 
ATOM     24  C   UNL     1      46.906  16.090  16.768  0.00  0.00    -0.009 A 
ATOM     25  C   UNL     1      46.919  14.760  17.157  0.00  0.00    +0.150 A 
ATOM     26  O   UNL     1      47.531  13.813  16.403  0.00  0.00    -0.303 OA
ENDBRANCH   9   8
BRANCH  10  11
ATOM     11  C   UNL     1      44.226  19.948  19.975  0.00  0.00    +0.423 C 
ATOM     22  O   UNL     1      44.760  20.345  20.996  0.00  0.00    -0.445 OA
BRANCH  11  12
ATOM     12  C   UNL     1      42.911  20.483  19.575  0.00  0.00    -0.200 A 
ATOM     13  C   UNL     1      41.782  19.658  19.597  0.00  0.00    +0.100 A 
ATOM     14  C   UNL     1      40.557  20.161  19.224  0.00  0.00    -0.029 A 
ATOM     15  C   UNL     1      40.436  21.488  18.824  0.00  0.00    +0.156 A 
ATOM     18  C   UNL     1      41.551  22.315  18.798  0.00  0.00    -0.048 A 
ATOM     19  C   UNL     1      42.787  21.822  19.177  0.00  0.00    +0.185 A 
BRANCH  15  16
ATOM     16  O   UNL     1      39.224  21.977  18.456  0.00  0.00    -0.496 OA
ATOM     17  H   UNL     1      38.538  21.302  18.372  0.00  0.00    +0.400 HD
ENDBRANCH  15  16
BRANCH  19  20
ATOM     20  O   UNL     1      43.876  22.630  19.158  0.00  0.00    -0.479 OA
ATOM     21  H   UNL     1      44.436  22.518  18.377  0.00  0.00    +0.399 HD
ENDBRANCH  19  20
ENDBRANCH  11  12
ENDBRANCH  10  11
TORSDOF 5
ENDMDL
MODEL 4
REMARK VINA RESULT:      -6.4      4.627      8.550
REMARK  Name = ZINC43069427
REMARK  7 active torsions:
REMARK  status: ('A' for Active; 'I' for Inactive)
REMARK    1  A    between atoms: C1_1  and  C2_2
REMARK    2  A    between atoms: C2_2  and  C20_24
REMARK    3  A    between atoms: C7_7  and  C11_12
REMARK    4  A    between atoms: C12_13  and  C13_14
REMARK    5  A    between atoms: C13_14  and  C14_16
REMARK    6  A    between atoms: C17_19  and  O4_23
REMARK    7  A    between atoms: C19_21  and  O3_22
REMARK                            x       y       z     vdW  Elec       q    Type
REMARK                         _______ _______ _______ _____ _____    ______ ____
ROOT
ATOM      9  C   UNL     1      47.817  20.119  19.472  0.00  0.00    +0.133 C 
ATOM     10  C   UNL     1      48.699  20.885  20.152  0.00  0.00    -0.110 C 
ENDROOT
BRANCH   9   8
ATOM      1  C   UNL     1      40.034  20.809  19.625  0.00  0.00    +0.083 C 
ATOM      2  C   UNL     1      41.454  20.345  19.293  0.00  0.00    +0.146 C 
ATOM      3  C   UNL     1      41.514  19.915  17.826  0.00  0.00    +0.035 C 
ATOM      4  C   UNL     1      41.811  19.172  20.168  0.00  0.00    -0.048 C 
ATOM      5  C   UNL     1      43.081  18.945  20.492  0.00  0.00    +0.039 C 
ATOM      6  C   UNL     1      44.107  19.880  19.980  0.00  0.00    -0.136 A 
ATOM      7  C   UNL     1      45.452  19.545  19.976  0.00  0.00    +0.092 A 
ATOM      8  C   UNL     1      46.388  20.461  19.482  0.00  0.00    -0.113 A 
ATOM     23  C   UNL     1      45.960  21.703  18.997  0.00  0.00    +0.076 A 
ATOM     24  C   UNL     1      44.621  22.031  19.002  0.00  0.00    -0.009 A 
ATOM     25  C   UNL     1      43.689  21.129  19.490  0.00  0.00    +0.150 A 
ATOM     26  O   UNL     1      42.365  21.425  19.505  0.00  0.00    -0.303 OA
ENDBRANCH   9   8
BRANCH  10  11
ATOM     11  C   UNL     1      50.121  20.545  20.143  0.00  0.00    +0.423 C 
ATOM     22  O   UNL     1      50.767  20.597  21.175  0.00  0.00    -0.445 OA
BRANCH  11  12
ATOM     12  C   UNL     1      50.773  20.137  18.885  0.00  0.00    -0.200 A 
ATOM     13  C   UNL     1      50.984  21.075  17.868  0.00  0.00    +0.100 A 
ATOM     14  C   UNL     1      51.593  20.691  16.696  0.00  0.00    -0.029 A 
ATOM     15  C   UNL     1      52.002  19.373  16.517  0.00  0.00    +0.156 A 
ATOM     18  C   UNL     1      51.797  18.435  17.519  0.00  0.00    -0.048 A 
ATOM     19  C   UNL     1      51.191  18.810  18.706  0.00  0.00    +0.185 A 
BRANCH  15  16
ATOM     16  O   UNL     1      52.602  19.002  15.357  0.00  0.00    -0.496 OA
ATOM     17  H   UNL     1      53.537  18.781  15.452  0.00  0.00    +0.400 HD
ENDBRANCH  15  16
BRANCH  19  20
ATOM     20  O   UNL     1      50.994  17.896  19.688  0.00  0.00    -0.479 OA
ATOM     21  H   UNL     1      51.675  17.904  20.376  0.00  0.00    +0.399 HD
ENDBRANCH  19  20
ENDBRANCH  11  12
ENDBRANCH  10  11
TORSDOF 5
ENDMDL
MODEL 5
REMARK VINA RESULT:      -6.3      3.816      5.107
REMARK  Name = ZINC43069427
REMARK  7 active torsions:
REMARK  status: ('A' for Active; 'I' for Inactive)
REMARK    1  A    between atoms: C1_1  and  C2_2
REMARK    2  A    between atoms: C2_2  and  C20_24
REMARK    3  A    between atoms: C7_7  and  C11_12
REMARK    4  A    between atoms: C12_13  and  C13_14
REMARK    5  A    between atoms: C13_14  and  C14_16
REMARK    6  A    between atoms: C17_19  and  O4_23
REMARK    7  A    between atoms: C19_21  and  O3_22
REMARK                            x       y       z     vdW  Elec       q    Type
REMARK                         _______ _______ _______ _____ _____    ______ ____
ROOT
ATOM      9  C   UNL     1      45.543  17.950  19.946  0.00  0.00    +0.133 C 
ATOM     10  C   UNL     1      44.863  18.848  20.693  0.00  0.00    -0.110 C 
ENDROOT
BRANCH   9   8
ATOM      1  C   UNL     1      52.900  19.874  18.144  0.00  0.00    +0.083 C 
ATOM      2  C   UNL     1      51.397  19.601  18.054  0.00  0.00    +0.146 C 
ATOM      3  C   UNL     1      51.066  19.053  16.664  0.00  0.00    +0.035 C 
ATOM      4  C   UNL     1      50.644  20.888  18.271  0.00  0.00    -0.048 C 
ATOM      5  C   UNL     1      49.419  20.863  18.789  0.00  0.00    +0.039 C 
ATOM      6  C   UNL     1      48.843  19.549  19.150  0.00  0.00    -0.136 A 
ATOM      7  C   UNL     1      47.484  19.393  19.370  0.00  0.00    +0.092 A 
ATOM      8  C   UNL     1      46.982  18.131  19.709  0.00  0.00    -0.113 A 
ATOM     23  C   UNL     1      47.854  17.041  19.823  0.00  0.00    +0.076 A 
ATOM     24  C   UNL     1      49.205  17.202  19.602  0.00  0.00    -0.009 A 
ATOM     25  C   UNL     1      49.709  18.449  19.266  0.00  0.00    +0.150 A 
ATOM     26  O   UNL     1      51.034  18.634  19.041  0.00  0.00    -0.303 OA
ENDBRANCH   9   8
BRANCH  10  11
ATOM     11  C   UNL     1      43.432  18.668  20.928  0.00  0.00    +0.423 C 
ATOM     22  O   UNL     1      43.043  17.791  21.680  0.00  0.00    -0.445 OA
BRANCH  11  12
ATOM     12  C   UNL     1      42.458  19.548  20.256  0.00  0.00    -0.200 A 
ATOM     13  C   UNL     1      42.899  20.525  19.357  0.00  0.00    +0.100 A 
ATOM     14  C   UNL     1      41.987  21.344  18.732  0.00  0.00    -0.029 A 
ATOM     15  C   UNL     1      40.627  21.204  18.990  0.00  0.00    +0.156 A 
ATOM     18  C   UNL     1      40.179  20.238  19.880  0.00  0.00    -0.048 A 
ATOM     19  C   UNL     1      41.086  19.404  20.511  0.00  0.00    +0.185 A 
BRANCH  15  16
ATOM     16  O   UNL     1      39.734  22.017  18.369  0.00  0.00    -0.496 OA
ATOM     17  H   UNL     1      40.141  22.708  17.830  0.00  0.00    +0.400 HD
ENDBRANCH  15  16
BRANCH  19  20
ATOM     20  O   UNL     1      40.650  18.456  21.377  0.00  0.00    -0.479 OA
ATOM     21  H   UNL     1      40.006  18.779  22.023  0.00  0.00    +0.399 HD
ENDBRANCH  19  20
ENDBRANCH  11  12
ENDBRANCH  10  11
TORSDOF 5
ENDMDL
MODEL 6
REMARK VINA RESULT:      -6.0      2.801      9.183
REMARK  Name = ZINC43069427
REMARK  7 active torsions:
REMARK  status: ('A' for Active; 'I' for Inactive)
REMARK    1  A    between atoms: C1_1  and  C2_2
REMARK    2  A    between atoms: C2_2  and  C20_24
REMARK    3  A    between atoms: C7_7  and  C11_12
REMARK    4  A    between atoms: C12_13  and  C13_14
REMARK    5  A    between atoms: C13_14  and  C14_16
REMARK    6  A    between atoms: C17_19  and  O4_23
REMARK    7  A    between atoms: C19_21  and  O3_22
REMARK                            x       y       z     vdW  Elec       q    Type
REMARK                         _______ _______ _______ _____ _____    ______ ____
ROOT
ATOM      9  C   UNL     1      46.807  15.027  16.627  0.00  0.00    +0.133 C 
ATOM     10  C   UNL     1      46.862  13.747  17.057  0.00  0.00    -0.110 C 
ENDROOT
BRANCH   9   8
ATOM      1  C   UNL     1      43.964  19.926  22.011  0.00  0.00    +0.083 C 
ATOM      2  C   UNL     1      44.075  18.869  20.910  0.00  0.00    +0.146 C 
ATOM      3  C   UNL     1      42.852  18.963  19.996  0.00  0.00    +0.035 C 
ATOM      4  C   UNL     1      44.120  17.500  21.538  0.00  0.00    -0.048 C 
ATOM      5  C   UNL     1      44.751  16.505  20.921  0.00  0.00    +0.039 C 
ATOM      6  C   UNL     1      45.406  16.794  19.626  0.00  0.00    -0.136 A 
ATOM      7  C   UNL     1      45.783  15.776  18.765  0.00  0.00    +0.092 A 
ATOM      8  C   UNL     1      46.400  16.095  17.550  0.00  0.00    -0.113 A 
ATOM     23  C   UNL     1      46.630  17.436  17.215  0.00  0.00    +0.076 A 
ATOM     24  C   UNL     1      46.252  18.444  18.075  0.00  0.00    -0.009 A 
ATOM     25  C   UNL     1      45.640  18.135  19.280  0.00  0.00    +0.150 A 
ATOM     26  O   UNL     1      45.256  19.109  20.143  0.00  0.00    -0.303 OA
ENDBRANCH   9   8
BRANCH  10  11
ATOM     11  C   UNL     1      47.265  12.684  16.139  0.00  0.00    +0.423 C 
ATOM     22  O   UNL     1      46.541  11.718  15.968  0.00  0.00    -0.445 OA
BRANCH  11  12
ATOM     12  C   UNL     1      48.547  12.780  15.418  0.00  0.00    -0.200 A 
ATOM     13  C   UNL     1      49.749  12.857  16.130  0.00  0.00    +0.100 A 
ATOM     14  C   UNL     1      50.943  12.947  15.453  0.00  0.00    -0.029 A 
ATOM     15  C   UNL     1      50.962  12.960  14.062  0.00  0.00    +0.156 A 
ATOM     18  C   UNL     1      49.776  12.884  13.346  0.00  0.00    -0.048 A 
ATOM     19  C   UNL     1      48.568  12.787  14.015  0.00  0.00    +0.185 A 
BRANCH  15  16
ATOM     16  O   UNL     1      52.145  13.049  13.402  0.00  0.00    -0.496 OA
ATOM     17  H   UNL     1      52.867  12.564  13.823  0.00  0.00    +0.400 HD
ENDBRANCH  15  16
BRANCH  19  20
ATOM     20  O   UNL     1      47.408  12.708  13.317  0.00  0.00    -0.479 OA
ATOM     21  H   UNL     1      47.235  13.473  12.751  0.00  0.00    +0.399 HD
ENDBRANCH  19  20
ENDBRANCH  11  12
ENDBRANCH  10  11
TORSDOF 5
ENDMDL
MODEL 7
REMARK VINA RESULT:      -6.0      1.666      2.668
REMARK  Name = ZINC43069427
REMARK  7 active torsions:
REMARK  status: ('A' for Active; 'I' for Inactive)
REMARK    1  A    between atoms: C1_1  and  C2_2
REMARK    2  A    between atoms: C2_2  and  C20_24
REMARK    3  A    between atoms: C7_7  and  C11_12
REMARK    4  A    between atoms: C12_13  and  C13_14
REMARK    5  A    between atoms: C13_14  and  C14_16
REMARK    6  A    between atoms: C17_19  and  O4_23
REMARK    7  A    between atoms: C19_21  and  O3_22
REMARK                            x       y       z     vdW  Elec       q    Type
REMARK                         _______ _______ _______ _____ _____    ______ ____
ROOT
ATOM      9  C   UNL     1      44.330  17.154  20.834  0.00  0.00    +0.133 C 
ATOM     10  C   UNL     1      43.960  18.194  20.054  0.00  0.00    -0.110 C 
ENDROOT
BRANCH   9   8
ATOM      1  C   UNL     1      48.271  11.757  16.784  0.00  0.00    +0.083 C 
ATOM      2  C   UNL     1      47.192  12.740  17.244  0.00  0.00    +0.146 C 
ATOM      3  C   UNL     1      45.813  12.170  16.905  0.00  0.00    +0.035 C 
ATOM      4  C   UNL     1      47.377  14.052  16.527  0.00  0.00    -0.048 C 
ATOM      5  C   UNL     1      46.985  15.185  17.103  0.00  0.00    +0.039 C 
ATOM      6  C   UNL     1      46.386  15.109  18.454  0.00  0.00    -0.136 A 
ATOM      7  C   UNL     1      45.655  16.162  18.980  0.00  0.00    +0.092 A 
ATOM      8  C   UNL     1      45.107  16.046  20.263  0.00  0.00    -0.113 A 
ATOM     23  C   UNL     1      45.301  14.871  21.001  0.00  0.00    +0.076 A 
ATOM     24  C   UNL     1      46.028  13.827  20.472  0.00  0.00    -0.009 A 
ATOM     25  C   UNL     1      46.574  13.935  19.202  0.00  0.00    +0.150 A 
ATOM     26  O   UNL     1      47.292  12.921  18.658  0.00  0.00    -0.303 OA
ENDBRANCH   9   8
BRANCH  10  11
ATOM     11  C   UNL     1      43.186  19.295  20.622  0.00  0.00    +0.423 C 
ATOM     22  O   UNL     1      42.034  19.114  20.973  0.00  0.00    -0.445 OA
BRANCH  11  12
ATOM     12  C   UNL     1      43.801  20.627  20.773  0.00  0.00    -0.200 A 
ATOM     13  C   UNL     1      44.650  20.890  21.853  0.00  0.00    +0.100 A 
ATOM     14  C   UNL     1      45.222  22.134  21.990  0.00  0.00    -0.029 A 
ATOM     15  C   UNL     1      44.959  23.133  21.059  0.00  0.00    +0.156 A 
ATOM     18  C   UNL     1      44.117  22.883  19.984  0.00  0.00    -0.048 A 
ATOM     19  C   UNL     1      43.541  21.634  19.831  0.00  0.00    +0.185 A 
BRANCH  15  16
ATOM     16  O   UNL     1      45.526  24.358  21.202  0.00  0.00    -0.496 OA
ATOM     17  H   UNL     1      46.486  24.361  21.091  0.00  0.00    +0.400 HD
ENDBRANCH  15  16
BRANCH  19  20
ATOM     20  O   UNL     1      42.723  21.386  18.778  0.00  0.00    -0.479 OA
ATOM     21  H   UNL     1      41.863  21.826  18.835  0.00  0.00    +0.399 HD
ENDBRANCH  19  20
ENDBRANCH  11  12
ENDBRANCH  10  11
TORSDOF 5
ENDMDL
MODEL 8
REMARK VINA RESULT:      -6.0      2.795      9.146
REMARK  Name = ZINC43069427
REMARK  7 active torsions:
REMARK  status: ('A' for Active; 'I' for Inactive)
REMARK    1  A    between atoms: C1_1  and  C2_2
REMARK    2  A    between atoms: C2_2  and  C20_24
REMARK    3  A    between atoms: C7_7  and  C11_12
REMARK    4  A    between atoms: C12_13  and  C13_14
REMARK    5  A    between atoms: C13_14  and  C14_16
REMARK    6  A    between atoms: C17_19  and  O4_23
REMARK    7  A    between atoms: C19_21  and  O3_22
REMARK                            x       y       z     vdW  Elec       q    Type
REMARK                         _______ _______ _______ _____ _____    ______ ____
ROOT
ATOM      9  C   UNL     1      46.386  14.271  18.154  0.00  0.00    +0.133 C 
ATOM     10  C   UNL     1      46.771  14.274  16.858  0.00  0.00    -0.110 C 
ENDROOT
BRANCH   9   8
ATOM      1  C   UNL     1      44.503  21.390  20.768  0.00  0.00    +0.083 C 
ATOM      2  C   UNL     1      45.296  20.165  20.307  0.00  0.00    +0.146 C 
ATOM      3  C   UNL     1      46.601  20.080  21.102  0.00  0.00    +0.035 C 
ATOM      4  C   UNL     1      45.616  20.303  18.842  0.00  0.00    -0.048 C 
ATOM      5  C   UNL     1      45.772  19.217  18.089  0.00  0.00    +0.039 C 
ATOM      6  C   UNL     1      45.609  17.895  18.733  0.00  0.00    -0.136 A 
ATOM      7  C   UNL     1      46.075  16.737  18.133  0.00  0.00    +0.092 A 
ATOM      8  C   UNL     1      45.898  15.508  18.779  0.00  0.00    -0.113 A 
ATOM     23  C   UNL     1      45.254  15.458  20.021  0.00  0.00    +0.076 A 
ATOM     24  C   UNL     1      44.793  16.614  20.615  0.00  0.00    -0.009 A 
ATOM     25  C   UNL     1      44.964  17.835  19.981  0.00  0.00    +0.150 A 
ATOM     26  O   UNL     1      44.522  18.987  20.544  0.00  0.00    -0.303 OA
ENDBRANCH   9   8
BRANCH  10  11
ATOM     11  C   UNL     1      47.257  13.044  16.237  0.00  0.00    +0.423 C 
ATOM     22  O   UNL     1      46.606  12.018  16.324  0.00  0.00    -0.445 OA
BRANCH  11  12
ATOM     12  C   UNL     1      48.536  13.044  15.504  0.00  0.00    -0.200 A 
ATOM     13  C   UNL     1      49.734  13.291  16.182  0.00  0.00    +0.100 A 
ATOM     14  C   UNL     1      50.926  13.290  15.495  0.00  0.00    -0.029 A 
ATOM     15  C   UNL     1      50.945  13.045  14.125  0.00  0.00    +0.156 A 
ATOM     18  C   UNL     1      49.762  12.799  13.442  0.00  0.00    -0.048 A 
ATOM     19  C   UNL     1      48.557  12.791  14.124  0.00  0.00    +0.185 A 
BRANCH  15  16
ATOM     16  O   UNL     1      52.125  13.046  13.454  0.00  0.00    -0.496 OA
ATOM     17  H   UNL     1      52.494  13.928  13.311  0.00  0.00    +0.400 HD
ENDBRANCH  15  16
BRANCH  19  20
ATOM     20  O   UNL     1      47.401  12.546  13.459  0.00  0.00    -0.479 OA
ATOM     21  H   UNL     1      46.672  13.133  13.706  0.00  0.00    +0.399 HD
ENDBRANCH  19  20
ENDBRANCH  11  12
ENDBRANCH  10  11
TORSDOF 5
ENDMDL
MODEL 9
REMARK VINA RESULT:      -5.9      1.680      2.246
REMARK  Name = ZINC43069427
REMARK  7 active torsions:
REMARK  status: ('A' for Active; 'I' for Inactive)
REMARK    1  A    between atoms: C1_1  and  C2_2
REMARK    2  A    between atoms: C2_2  and  C20_24
REMARK    3  A    between atoms: C7_7  and  C11_12
REMARK    4  A    between atoms: C12_13  and  C13_14
REMARK    5  A    between atoms: C13_14  and  C14_16
REMARK    6  A    between atoms: C17_19  and  O4_23
REMARK    7  A    between atoms: C19_21  and  O3_22
REMARK                            x       y       z     vdW  Elec       q    Type
REMARK                         _______ _______ _______ _____ _____    ______ ____
ROOT
ATOM      9  C   UNL     1      44.748  16.390  20.885  0.00  0.00    +0.133 C 
ATOM     10  C   UNL     1      44.449  17.647  20.488  0.00  0.00    -0.110 C 
ENDROOT
BRANCH   9   8
ATOM      1  C   UNL     1      49.666  12.365  16.338  0.00  0.00    +0.083 C 
ATOM      2  C   UNL     1      48.407  12.842  17.065  0.00  0.00    +0.146 C 
ATOM      3  C   UNL     1      47.531  11.634  17.405  0.00  0.00    +0.035 C 
ATOM      4  C   UNL     1      47.638  13.775  16.166  0.00  0.00    -0.048 C 
ATOM      5  C   UNL     1      46.873  14.727  16.694  0.00  0.00    +0.039 C 
ATOM      6  C   UNL     1      46.820  14.840  18.168  0.00  0.00    -0.136 A 
ATOM      7  C   UNL     1      45.816  15.555  18.802  0.00  0.00    +0.092 A 
ATOM      8  C   UNL     1      45.806  15.635  20.199  0.00  0.00    -0.113 A 
ATOM     23  C   UNL     1      46.805  14.995  20.943  0.00  0.00    +0.076 A 
ATOM     24  C   UNL     1      47.800  14.284  20.307  0.00  0.00    -0.009 A 
ATOM     25  C   UNL     1      47.817  14.200  18.923  0.00  0.00    +0.150 A 
ATOM     26  O   UNL     1      48.784  13.505  18.273  0.00  0.00    -0.303 OA
ENDBRANCH   9   8
BRANCH  10  11
ATOM     11  C   UNL     1      43.396  18.398  21.170  0.00  0.00    +0.423 C 
ATOM     22  O   UNL     1      43.205  18.233  22.362  0.00  0.00    -0.445 OA
BRANCH  11  12
ATOM     12  C   UNL     1      42.567  19.356  20.416  0.00  0.00    -0.200 A 
ATOM     13  C   UNL     1      43.169  20.284  19.560  0.00  0.00    +0.100 A 
ATOM     14  C   UNL     1      42.392  21.176  18.859  0.00  0.00    -0.029 A 
ATOM     15  C   UNL     1      41.008  21.159  18.996  0.00  0.00    +0.156 A 
ATOM     18  C   UNL     1      40.400  20.243  19.843  0.00  0.00    -0.048 A 
ATOM     19  C   UNL     1      41.171  19.336  20.550  0.00  0.00    +0.185 A 
BRANCH  15  16
ATOM     16  O   UNL     1      40.248  22.043  18.301  0.00  0.00    -0.496 OA
ATOM     17  H   UNL     1      39.769  22.672  18.857  0.00  0.00    +0.400 HD
ENDBRANCH  15  16
BRANCH  19  20
ATOM     20  O   UNL     1      40.578  18.437  21.374  0.00  0.00    -0.479 OA
ATOM     21  H   UNL     1      40.837  18.522  22.303  0.00  0.00    +0.399 HD
ENDBRANCH  19  20
ENDBRANCH  11  12
ENDBRANCH  10  11
TORSDOF 5
ENDMDL
