MODEL 1
REMARK VINA RESULT:      -7.3      0.000      0.000
REMARK  Name = ZINC95486118
REMARK  10 active torsions:
REMARK  status: ('A' for Active; 'I' for Inactive)
REMARK    1  A    between atoms: C1_1  and  C2_2
REMARK    2  A    between atoms: C2_2  and  C4_4
REMARK    3  A    between atoms: C7_8  and  C30_37
REMARK    4  A    between atoms: C13_17  and  C29_36
REMARK    5  A    between atoms: C16_20  and  O1_35
REMARK    6  A    between atoms: C17_22  and  C27_33
REMARK    7  A    between atoms: C17_22  and  C28_34
REMARK    8  A    between atoms: C21_27  and  C26_32
REMARK    9  A    between atoms: C22_28  and  C25_31
REMARK   10  A    between atoms: C30_37  and  O2_38
REMARK                            x       y       z     vdW  Elec       q    Type
REMARK                         _______ _______ _______ _____ _____    ______ ____
ROOT
ATOM      3  C   UNL     1      50.454  18.735  17.170  0.00  0.00    +0.036 C 
ATOM      4  C   UNL     1      51.038  17.343  16.849  0.00  0.00    +0.015 C 
ATOM      5  C   UNL     1      51.645  16.847  18.177  0.00  0.00    +0.019 C 
ATOM      6  C   UNL     1      50.696  17.427  19.274  0.00  0.00    -0.038 C 
ATOM     10  C   UNL     1      49.614  16.376  19.484  0.00  0.00    +0.020 C 
ATOM     11  C   UNL     1      48.290  16.936  19.991  0.00  0.00    +0.014 C 
ATOM     12  C   UNL     1      47.788  18.018  19.031  0.00  0.00    -0.029 C 
ATOM     13  C   UNL     1      47.686  17.412  17.626  0.00  0.00    +0.018 C 
ATOM     14  C   UNL     1      46.390  18.513  19.430  0.00  0.00    -0.028 C 
ATOM     15  C   UNL     1      45.468  17.284  19.370  0.00  0.00    +0.017 C 
ATOM     16  C   UNL     1      45.885  19.533  18.408  0.00  0.00    +0.018 C 
ATOM     17  C   UNL     1      44.465  19.959  18.756  0.00  0.00    +0.009 C 
ATOM     18  C   UNL     1      44.324  20.538  20.158  0.00  0.00    -0.003 C 
ATOM     19  C   UNL     1      44.330  22.052  20.128  0.00  0.00    -0.037 C 
ATOM     20  C   UNL     1      45.391  22.614  19.179  0.00  0.00    +0.034 C 
ATOM     21  C   UNL     1      42.951  22.514  19.593  0.00  0.00    +0.016 C 
ATOM     22  C   UNL     1      44.497  22.698  21.500  0.00  0.00    +0.169 C 
ATOM     25  C   UNL     1      45.674  22.049  22.226  0.00  0.00    -0.015 C 
ATOM     26  C   UNL     1      45.320  20.600  22.505  0.00  0.00    +0.014 C 
ATOM     27  C   UNL     1      45.068  19.790  21.225  0.00  0.00    -0.028 C 
ATOM     28  C   UNL     1      44.131  18.647  21.722  0.00  0.00    +0.008 C 
ATOM     29  C   UNL     1      46.396  19.158  20.804  0.00  0.00    +0.014 C 
ATOM     30  C   UNL     1      47.469  20.248  20.888  0.00  0.00    +0.010 C 
ATOM     31  C   UNL     1      48.842  19.724  20.491  0.00  0.00    -0.003 C 
ATOM     32  C   UNL     1      48.798  19.157  19.064  0.00  0.00    +0.011 C 
ATOM     33  C   UNL     1      50.198  18.740  18.678  0.00  0.00    -0.000 C 
ENDROOT
BRANCH   3   2
ATOM      1  C   UNL     1      51.620  21.013  17.706  0.00  0.00    +0.069 C 
ATOM      2  C   UNL     1      51.467  19.803  16.822  0.00  0.00    -0.116 C 
ATOM     34  C   UNL     1      52.212  19.675  15.752  0.00  0.00    -0.007 C 
ENDBRANCH   3   2
BRANCH  22  23
ATOM     23  O   UNL     1      44.756  24.095  21.336  0.00  0.00    -0.563 OA
ATOM     24  H   UNL     1      44.317  24.655  21.991  0.00  0.00    +0.375 HD
ENDBRANCH  22  23
BRANCH   6   7
ATOM      7  C   UNL     1      51.489  17.662  20.578  0.00  0.00    +0.175 C 
BRANCH   7   8
ATOM      8  O   UNL     1      52.233  18.878  20.471  0.00  0.00    -0.569 OA
ATOM      9  H   UNL     1      52.722  19.112  21.272  0.00  0.00    +0.378 HD
ENDBRANCH   7   8
ENDBRANCH   6   7
TORSDOF 4
ENDMDL
MODEL 2
REMARK VINA RESULT:      -6.5      2.978      6.992
REMARK  Name = ZINC95486118
REMARK  10 active torsions:
REMARK  status: ('A' for Active; 'I' for Inactive)
REMARK    1  A    between atoms: C1_1  and  C2_2
REMARK    2  A    between atoms: C2_2  and  C4_4
REMARK    3  A    between atoms: C7_8  and  C30_37
REMARK    4  A    between atoms: C13_17  and  C29_36
REMARK    5  A    between atoms: C16_20  and  O1_35
REMARK    6  A    between atoms: C17_22  and  C27_33
REMARK    7  A    between atoms: C17_22  and  C28_34
REMARK    8  A    between atoms: C21_27  and  C26_32
REMARK    9  A    between atoms: C22_28  and  C25_31
REMARK   10  A    between atoms: C30_37  and  O2_38
REMARK                            x       y       z     vdW  Elec       q    Type
REMARK                         _______ _______ _______ _____ _____    ______ ____
ROOT
ATOM      3  C   UNL     1      45.601  16.699  21.387  0.00  0.00    +0.036 C 
ATOM      4  C   UNL     1      45.181  15.429  22.155  0.00  0.00    +0.015 C 
ATOM      5  C   UNL     1      45.095  14.322  21.084  0.00  0.00    +0.019 C 
ATOM      6  C   UNL     1      46.225  14.682  20.067  0.00  0.00    -0.038 C 
ATOM     10  C   UNL     1      47.475  13.971  20.568  0.00  0.00    +0.020 C 
ATOM     11  C   UNL     1      48.781  14.639  20.154  0.00  0.00    +0.014 C 
ATOM     12  C   UNL     1      48.786  16.095  20.625  0.00  0.00    -0.029 C 
ATOM     13  C   UNL     1      48.553  16.117  22.141  0.00  0.00    +0.018 C 
ATOM     14  C   UNL     1      50.140  16.767  20.350  0.00  0.00    -0.028 C 
ATOM     15  C   UNL     1      51.186  15.955  21.132  0.00  0.00    +0.017 C 
ATOM     16  C   UNL     1      50.138  18.193  20.904  0.00  0.00    +0.018 C 
ATOM     17  C   UNL     1      51.508  18.829  20.708  0.00  0.00    +0.009 C 
ATOM     18  C   UNL     1      51.972  18.851  19.256  0.00  0.00    -0.003 C 
ATOM     19  C   UNL     1      51.712  20.199  18.620  0.00  0.00    -0.037 C 
ATOM     20  C   UNL     1      50.337  20.764  18.985  0.00  0.00    +0.034 C 
ATOM     21  C   UNL     1      52.770  21.188  19.173  0.00  0.00    +0.016 C 
ATOM     22  C   UNL     1      51.868  20.208  17.102  0.00  0.00    +0.169 C 
ATOM     25  C   UNL     1      51.088  19.037  16.506  0.00  0.00    -0.015 C 
ATOM     26  C   UNL     1      51.740  17.747  16.969  0.00  0.00    +0.014 C 
ATOM     27  C   UNL     1      51.719  17.582  18.496  0.00  0.00    -0.028 C 
ATOM     28  C   UNL     1      52.934  16.641  18.755  0.00  0.00    +0.008 C 
ATOM     29  C   UNL     1      50.446  16.818  18.864  0.00  0.00    +0.014 C 
ATOM     30  C   UNL     1      49.288  17.456  18.091  0.00  0.00    +0.010 C 
ATOM     31  C   UNL     1      47.963  16.765  18.383  0.00  0.00    -0.003 C 
ATOM     32  C   UNL     1      47.663  16.813  19.889  0.00  0.00    +0.011 C 
ATOM     33  C   UNL     1      46.298  16.206  20.118  0.00  0.00    -0.000 C 
ENDROOT
BRANCH   3   2
ATOM      1  C   UNL     1      43.189  17.539  21.947  0.00  0.00    +0.069 C 
ATOM      2  C   UNL     1      44.371  17.497  21.014  0.00  0.00    -0.116 C 
ATOM     34  C   UNL     1      44.335  18.152  19.880  0.00  0.00    -0.007 C 
ENDBRANCH   3   2
BRANCH  22  23
ATOM     23  O   UNL     1      51.349  21.435  16.581  0.00  0.00    -0.563 OA
ATOM     24  H   UNL     1      51.319  21.469  15.615  0.00  0.00    +0.375 HD
ENDBRANCH  22  23
BRANCH   6   7
ATOM      7  C   UNL     1      45.839  14.182  18.659  0.00  0.00    +0.175 C 
BRANCH   7   8
ATOM      8  O   UNL     1      44.714  13.305  18.756  0.00  0.00    -0.569 OA
ATOM      9  H   UNL     1      43.859  13.754  18.704  0.00  0.00    +0.378 HD
ENDBRANCH   7   8
ENDBRANCH   6   7
TORSDOF 4
ENDMDL
MODEL 3
REMARK VINA RESULT:      -6.5      1.894      3.660
REMARK  Name = ZINC95486118
REMARK  10 active torsions:
REMARK  status: ('A' for Active; 'I' for Inactive)
REMARK    1  A    between atoms: C1_1  and  C2_2
REMARK    2  A    between atoms: C2_2  and  C4_4
REMARK    3  A    between atoms: C7_8  and  C30_37
REMARK    4  A    between atoms: C13_17  and  C29_36
REMARK    5  A    between atoms: C16_20  and  O1_35
REMARK    6  A    between atoms: C17_22  and  C27_33
REMARK    7  A    between atoms: C17_22  and  C28_34
REMARK    8  A    between atoms: C21_27  and  C26_32
REMARK    9  A    between atoms: C22_28  and  C25_31
REMARK   10  A    between atoms: C30_37  and  O2_38
REMARK                            x       y       z     vdW  Elec       q    Type
REMARK                         _______ _______ _______ _____ _____    ______ ____
ROOT
ATOM      3  C   UNL     1      50.905  17.707  18.641  0.00  0.00    +0.036 C 
ATOM      4  C   UNL     1      52.389  18.066  18.861  0.00  0.00    +0.015 C 
ATOM      5  C   UNL     1      52.612  19.362  18.055  0.00  0.00    +0.019 C 
ATOM      6  C   UNL     1      51.255  20.127  18.174  0.00  0.00    -0.038 C 
ATOM     10  C   UNL     1      51.375  20.992  19.421  0.00  0.00    +0.020 C 
ATOM     11  C   UNL     1      50.042  21.319  20.084  0.00  0.00    +0.014 C 
ATOM     12  C   UNL     1      49.302  20.021  20.419  0.00  0.00    -0.029 C 
ATOM     13  C   UNL     1      50.214  19.154  21.296  0.00  0.00    +0.018 C 
ATOM     14  C   UNL     1      48.016  20.300  21.212  0.00  0.00    -0.028 C 
ATOM     15  C   UNL     1      48.457  21.005  22.505  0.00  0.00    +0.017 C 
ATOM     16  C   UNL     1      47.345  18.981  21.599  0.00  0.00    +0.018 C 
ATOM     17  C   UNL     1      46.117  19.255  22.459  0.00  0.00    +0.009 C 
ATOM     18  C   UNL     1      45.094  20.167  21.794  0.00  0.00    -0.003 C 
ATOM     19  C   UNL     1      43.970  19.365  21.173  0.00  0.00    -0.037 C 
ATOM     20  C   UNL     1      44.475  18.126  20.431  0.00  0.00    +0.034 C 
ATOM     21  C   UNL     1      43.060  18.867  22.324  0.00  0.00    +0.016 C 
ATOM     22  C   UNL     1      43.075  20.175  20.238  0.00  0.00    +0.169 C 
ATOM     25  C   UNL     1      43.945  20.960  19.258  0.00  0.00    -0.015 C 
ATOM     26  C   UNL     1      44.739  21.987  20.043  0.00  0.00    +0.014 C 
ATOM     27  C   UNL     1      45.676  21.351  21.081  0.00  0.00    -0.028 C 
ATOM     28  C   UNL     1      45.841  22.487  22.135  0.00  0.00    +0.008 C 
ATOM     29  C   UNL     1      47.034  21.134  20.410  0.00  0.00    +0.014 C 
ATOM     30  C   UNL     1      46.772  20.498  19.041  0.00  0.00    +0.010 C 
ATOM     31  C   UNL     1      48.065  20.239  18.280  0.00  0.00    -0.003 C 
ATOM     32  C   UNL     1      48.988  19.326  19.101  0.00  0.00    +0.011 C 
ATOM     33  C   UNL     1      50.210  19.018  18.268  0.00  0.00    -0.000 C 
ENDROOT
BRANCH   3   2
ATOM      1  C   UNL     1      49.472  16.033  17.233  0.00  0.00    +0.069 C 
ATOM      2  C   UNL     1      50.784  16.725  17.497  0.00  0.00    -0.116 C 
ATOM     34  C   UNL     1      51.821  16.476  16.736  0.00  0.00    -0.007 C 
ENDBRANCH   3   2
BRANCH  22  23
ATOM     23  O   UNL     1      42.226  19.285  19.509  0.00  0.00    -0.563 OA
ATOM     24  H   UNL     1      41.868  19.664  18.694  0.00  0.00    +0.375 HD
ENDBRANCH  22  23
BRANCH   6   7
ATOM      7  C   UNL     1      51.038  21.002  16.920  0.00  0.00    +0.175 C 
BRANCH   7   8
ATOM      8  O   UNL     1      52.277  21.156  16.225  0.00  0.00    -0.569 OA
ATOM      9  H   UNL     1      52.954  21.631  16.727  0.00  0.00    +0.378 HD
ENDBRANCH   7   8
ENDBRANCH   6   7
TORSDOF 4
ENDMDL
MODEL 4
REMARK VINA RESULT:      -5.9      3.241      6.630
REMARK  Name = ZINC95486118
REMARK  10 active torsions:
REMARK  status: ('A' for Active; 'I' for Inactive)
REMARK    1  A    between atoms: C1_1  and  C2_2
REMARK    2  A    between atoms: C2_2  and  C4_4
REMARK    3  A    between atoms: C7_8  and  C30_37
REMARK    4  A    between atoms: C13_17  and  C29_36
REMARK    5  A    between atoms: C16_20  and  O1_35
REMARK    6  A    between atoms: C17_22  and  C27_33
REMARK    7  A    between atoms: C17_22  and  C28_34
REMARK    8  A    between atoms: C21_27  and  C26_32
REMARK    9  A    between atoms: C22_28  and  C25_31
REMARK   10  A    between atoms: C30_37  and  O2_38
REMARK                            x       y       z     vdW  Elec       q    Type
REMARK                         _______ _______ _______ _____ _____    ______ ____
ROOT
ATOM      3  C   UNL     1      51.726  19.284  17.791  0.00  0.00    +0.036 C 
ATOM      4  C   UNL     1      52.283  20.246  18.861  0.00  0.00    +0.015 C 
ATOM      5  C   UNL     1      51.050  20.989  19.413  0.00  0.00    +0.019 C 
ATOM      6  C   UNL     1      49.906  19.926  19.363  0.00  0.00    -0.038 C 
ATOM     10  C   UNL     1      49.954  19.202  20.701  0.00  0.00    +0.020 C 
ATOM     11  C   UNL     1      49.409  17.779  20.661  0.00  0.00    +0.014 C 
ATOM     12  C   UNL     1      50.164  16.969  19.604  0.00  0.00    -0.029 C 
ATOM     13  C   UNL     1      51.663  17.031  19.922  0.00  0.00    +0.018 C 
ATOM     14  C   UNL     1      49.742  15.492  19.624  0.00  0.00    -0.028 C 
ATOM     15  C   UNL     1      50.081  14.971  21.031  0.00  0.00    +0.017 C 
ATOM     16  C   UNL     1      50.570  14.698  18.613  0.00  0.00    +0.018 C 
ATOM     17  C   UNL     1      50.212  13.219  18.695  0.00  0.00    +0.009 C 
ATOM     18  C   UNL     1      48.732  12.933  18.471  0.00  0.00    -0.003 C 
ATOM     19  C   UNL     1      48.469  12.495  17.047  0.00  0.00    -0.037 C 
ATOM     20  C   UNL     1      49.242  13.331  16.024  0.00  0.00    +0.034 C 
ATOM     21  C   UNL     1      48.968  11.033  16.908  0.00  0.00    +0.016 C 
ATOM     22  C   UNL     1      46.992  12.482  16.665  0.00  0.00    +0.169 C 
ATOM     25  C   UNL     1      46.351  13.807  17.076  0.00  0.00    -0.015 C 
ATOM     26  C   UNL     1      46.374  13.897  18.590  0.00  0.00    +0.014 C 
ATOM     27  C   UNL     1      47.797  13.877  19.168  0.00  0.00    -0.028 C 
ATOM     28  C   UNL     1      47.574  13.323  20.608  0.00  0.00    +0.008 C 
ATOM     29  C   UNL     1      48.270  15.327  19.291  0.00  0.00    +0.014 C 
ATOM     30  C   UNL     1      47.927  16.034  17.976  0.00  0.00    +0.010 C 
ATOM     31  C   UNL     1      48.355  17.495  17.990  0.00  0.00    -0.003 C 
ATOM     32  C   UNL     1      49.865  17.601  18.251  0.00  0.00    +0.011 C 
ATOM     33  C   UNL     1      50.259  19.057  18.159  0.00  0.00    -0.000 C 
ENDROOT
BRANCH   3   2
ATOM      1  C   UNL     1      51.491  21.397  16.269  0.00  0.00    +0.069 C 
ATOM      2  C   UNL     1      51.814  19.934  16.428  0.00  0.00    -0.116 C 
ATOM     34  C   UNL     1      52.173  19.226  15.386  0.00  0.00    -0.007 C 
ENDBRANCH   3   2
BRANCH  22  23
ATOM     23  O   UNL     1      46.871  12.318  15.250  0.00  0.00    -0.563 OA
ATOM     24  H   UNL     1      47.675  12.537  14.759  0.00  0.00    +0.375 HD
ENDBRANCH  22  23
BRANCH   6   7
ATOM      7  C   UNL     1      48.546  20.631  19.171  0.00  0.00    +0.175 C 
BRANCH   7   8
ATOM      8  O   UNL     1      48.140  21.229  20.404  0.00  0.00    -0.569 OA
ATOM      9  H   UNL     1      47.195  21.428  20.453  0.00  0.00    +0.378 HD
ENDBRANCH   7   8
ENDBRANCH   6   7
TORSDOF 4
ENDMDL
MODEL 5
REMARK VINA RESULT:      -5.8      3.036      6.885
REMARK  Name = ZINC95486118
REMARK  10 active torsions:
REMARK  status: ('A' for Active; 'I' for Inactive)
REMARK    1  A    between atoms: C1_1  and  C2_2
REMARK    2  A    between atoms: C2_2  and  C4_4
REMARK    3  A    between atoms: C7_8  and  C30_37
REMARK    4  A    between atoms: C13_17  and  C29_36
REMARK    5  A    between atoms: C16_20  and  O1_35
REMARK    6  A    between atoms: C17_22  and  C27_33
REMARK    7  A    between atoms: C17_22  and  C28_34
REMARK    8  A    between atoms: C21_27  and  C26_32
REMARK    9  A    between atoms: C22_28  and  C25_31
REMARK   10  A    between atoms: C30_37  and  O2_38
REMARK                            x       y       z     vdW  Elec       q    Type
REMARK                         _______ _______ _______ _____ _____    ______ ____
ROOT
ATOM      3  C   UNL     1      49.058  19.960  20.445  0.00  0.00    +0.036 C 
ATOM      4  C   UNL     1      48.368  20.961  21.394  0.00  0.00    +0.015 C 
ATOM      5  C   UNL     1      47.137  21.468  20.616  0.00  0.00    +0.019 C 
ATOM      6  C   UNL     1      46.676  20.233  19.779  0.00  0.00    -0.038 C 
ATOM     10  C   UNL     1      45.690  19.478  20.662  0.00  0.00    +0.020 C 
ATOM     11  C   UNL     1      45.598  17.987  20.360  0.00  0.00    +0.014 C 
ATOM     12  C   UNL     1      46.987  17.353  20.470  0.00  0.00    -0.029 C 
ATOM     13  C   UNL     1      47.550  17.652  21.865  0.00  0.00    +0.018 C 
ATOM     14  C   UNL     1      46.919  15.827  20.309  0.00  0.00    -0.028 C 
ATOM     15  C   UNL     1      46.016  15.318  21.444  0.00  0.00    +0.017 C 
ATOM     16  C   UNL     1      48.310  15.219  20.502  0.00  0.00    +0.018 C 
ATOM     17  C   UNL     1      48.227  13.699  20.429  0.00  0.00    +0.009 C 
ATOM     18  C   UNL     1      47.625  13.180  19.129  0.00  0.00    -0.003 C 
ATOM     19  C   UNL     1      48.706  12.756  18.157  0.00  0.00    -0.037 C 
ATOM     20  C   UNL     1      49.871  13.747  18.110  0.00  0.00    +0.034 C 
ATOM     21  C   UNL     1      49.278  11.404  18.655  0.00  0.00    +0.016 C 
ATOM     22  C   UNL     1      48.201  12.513  16.737  0.00  0.00    +0.169 C 
ATOM     25  C   UNL     1      47.343  13.697  16.295  0.00  0.00    -0.015 C 
ATOM     26  C   UNL     1      46.099  13.734  17.162  0.00  0.00    +0.014 C 
ATOM     27  C   UNL     1      46.416  13.929  18.652  0.00  0.00    -0.028 C 
ATOM     28  C   UNL     1      45.177  13.294  19.352  0.00  0.00    +0.008 C 
ATOM     29  C   UNL     1      46.397  15.432  18.939  0.00  0.00    +0.014 C 
ATOM     30  C   UNL     1      47.201  16.120  17.832  0.00  0.00    +0.010 C 
ATOM     31  C   UNL     1      47.246  17.630  18.018  0.00  0.00    -0.003 C 
ATOM     32  C   UNL     1      47.855  17.976  19.385  0.00  0.00    +0.011 C 
ATOM     33  C   UNL     1      47.970  19.479  19.484  0.00  0.00    -0.000 C 
ENDROOT
BRANCH   3   2
ATOM      1  C   UNL     1      51.398  21.125  20.372  0.00  0.00    +0.069 C 
ATOM      2  C   UNL     1      50.147  20.666  19.668  0.00  0.00    -0.116 C 
ATOM     34  C   UNL     1      50.003  20.877  18.384  0.00  0.00    -0.007 C 
ENDBRANCH   3   2
BRANCH  22  23
ATOM     23  O   UNL     1      49.319  12.382  15.855  0.00  0.00    -0.563 OA
ATOM     24  H   UNL     1      50.176  12.409  16.302  0.00  0.00    +0.375 HD
ENDBRANCH  22  23
BRANCH   6   7
ATOM      7  C   UNL     1      45.991  20.709  18.479  0.00  0.00    +0.175 C 
BRANCH   7   8
ATOM      8  O   UNL     1      45.173  21.847  18.760  0.00  0.00    -0.569 OA
ATOM      9  H   UNL     1      45.119  22.070  19.700  0.00  0.00    +0.378 HD
ENDBRANCH   7   8
ENDBRANCH   6   7
TORSDOF 4
ENDMDL
MODEL 6
REMARK VINA RESULT:      -5.7      2.590      7.375
REMARK  Name = ZINC95486118
REMARK  10 active torsions:
REMARK  status: ('A' for Active; 'I' for Inactive)
REMARK    1  A    between atoms: C1_1  and  C2_2
REMARK    2  A    between atoms: C2_2  and  C4_4
REMARK    3  A    between atoms: C7_8  and  C30_37
REMARK    4  A    between atoms: C13_17  and  C29_36
REMARK    5  A    between atoms: C16_20  and  O1_35
REMARK    6  A    between atoms: C17_22  and  C27_33
REMARK    7  A    between atoms: C17_22  and  C28_34
REMARK    8  A    between atoms: C21_27  and  C26_32
REMARK    9  A    between atoms: C22_28  and  C25_31
REMARK   10  A    between atoms: C30_37  and  O2_38
REMARK                            x       y       z     vdW  Elec       q    Type
REMARK                         _______ _______ _______ _____ _____    ______ ____
ROOT
ATOM      3  C   UNL     1      43.433  19.531  19.691  0.00  0.00    +0.036 C 
ATOM      4  C   UNL     1      43.421  20.979  19.157  0.00  0.00    +0.015 C 
ATOM      5  C   UNL     1      44.143  21.810  20.236  0.00  0.00    +0.019 C 
ATOM      6  C   UNL     1      45.233  20.844  20.801  0.00  0.00    -0.038 C 
ATOM     10  C   UNL     1      46.469  21.062  19.939  0.00  0.00    +0.020 C 
ATOM     11  C   UNL     1      47.400  19.857  19.866  0.00  0.00    +0.014 C 
ATOM     12  C   UNL     1      46.624  18.637  19.365  0.00  0.00    -0.029 C 
ATOM     13  C   UNL     1      45.985  18.987  18.015  0.00  0.00    +0.018 C 
ATOM     14  C   UNL     1      47.554  17.434  19.146  0.00  0.00    -0.028 C 
ATOM     15  C   UNL     1      48.581  17.876  18.090  0.00  0.00    +0.017 C 
ATOM     16  C   UNL     1      46.761  16.259  18.571  0.00  0.00    +0.018 C 
ATOM     17  C   UNL     1      47.700  15.096  18.272  0.00  0.00    +0.009 C 
ATOM     18  C   UNL     1      48.496  14.625  19.483  0.00  0.00    -0.003 C 
ATOM     19  C   UNL     1      47.857  13.408  20.117  0.00  0.00    -0.037 C 
ATOM     20  C   UNL     1      46.335  13.529  20.213  0.00  0.00    +0.034 C 
ATOM     21  C   UNL     1      48.160  12.192  19.205  0.00  0.00    +0.016 C 
ATOM     22  C   UNL     1      48.416  13.062  21.494  0.00  0.00    +0.169 C 
ATOM     25  C   UNL     1      48.444  14.320  22.361  0.00  0.00    -0.015 C 
ATOM     26  C   UNL     1      49.439  15.293  21.756  0.00  0.00    +0.014 C 
ATOM     27  C   UNL     1      49.061  15.725  20.332  0.00  0.00    -0.028 C 
ATOM     28  C   UNL     1      50.437  16.120  19.717  0.00  0.00    +0.008 C 
ATOM     29  C   UNL     1      48.214  16.995  20.440  0.00  0.00    +0.014 C 
ATOM     30  C   UNL     1      47.166  16.755  21.531  0.00  0.00    +0.010 C 
ATOM     31  C   UNL     1      46.264  17.966  21.726  0.00  0.00    -0.003 C 
ATOM     32  C   UNL     1      45.560  18.318  20.407  0.00  0.00    +0.011 C 
ATOM     33  C   UNL     1      44.605  19.459  20.671  0.00  0.00    -0.000 C 
ENDROOT
BRANCH   3   2
ATOM      1  C   UNL     1      42.155  18.458  21.704  0.00  0.00    +0.069 C 
ATOM      2  C   UNL     1      42.139  19.250  20.423  0.00  0.00    -0.116 C 
ATOM     34  C   UNL     1      41.005  19.696  19.942  0.00  0.00    -0.007 C 
ENDBRANCH   3   2
BRANCH  22  23
ATOM     23  O   UNL     1      47.579  12.081  22.111  0.00  0.00    -0.563 OA
ATOM     24  H   UNL     1      47.357  11.336  21.535  0.00  0.00    +0.375 HD
ENDBRANCH  22  23
BRANCH   6   7
ATOM      7  C   UNL     1      45.527  21.194  22.276  0.00  0.00    +0.175 C 
BRANCH   7   8
ATOM      8  O   UNL     1      45.245  22.577  22.503  0.00  0.00    -0.569 OA
ATOM      9  H   UNL     1      45.821  23.182  22.016  0.00  0.00    +0.378 HD
ENDBRANCH   7   8
ENDBRANCH   6   7
TORSDOF 4
ENDMDL
MODEL 7
REMARK VINA RESULT:      -5.7      2.826      7.267
REMARK  Name = ZINC95486118
REMARK  10 active torsions:
REMARK  status: ('A' for Active; 'I' for Inactive)
REMARK    1  A    between atoms: C1_1  and  C2_2
REMARK    2  A    between atoms: C2_2  and  C4_4
REMARK    3  A    between atoms: C7_8  and  C30_37
REMARK    4  A    between atoms: C13_17  and  C29_36
REMARK    5  A    between atoms: C16_20  and  O1_35
REMARK    6  A    between atoms: C17_22  and  C27_33
REMARK    7  A    between atoms: C17_22  and  C28_34
REMARK    8  A    between atoms: C21_27  and  C26_32
REMARK    9  A    between atoms: C22_28  and  C25_31
REMARK   10  A    between atoms: C30_37  and  O2_38
REMARK                            x       y       z     vdW  Elec       q    Type
REMARK                         _______ _______ _______ _____ _____    ______ ____
ROOT
ATOM      3  C   UNL     1      46.564  20.184  21.688  0.00  0.00    +0.036 C 
ATOM      4  C   UNL     1      45.409  20.799  22.504  0.00  0.00    +0.015 C 
ATOM      5  C   UNL     1      44.298  21.086  21.474  0.00  0.00    +0.019 C 
ATOM      6  C   UNL     1      44.430  19.929  20.433  0.00  0.00    -0.038 C 
ATOM     10  C   UNL     1      43.535  18.807  20.945  0.00  0.00    +0.020 C 
ATOM     11  C   UNL     1      43.960  17.415  20.495  0.00  0.00    +0.014 C 
ATOM     12  C   UNL     1      45.409  17.158  20.915  0.00  0.00    -0.029 C 
ATOM     13  C   UNL     1      45.519  17.360  22.431  0.00  0.00    +0.018 C 
ATOM     14  C   UNL     1      45.835  15.716  20.602  0.00  0.00    -0.028 C 
ATOM     15  C   UNL     1      44.885  14.808  21.400  0.00  0.00    +0.017 C 
ATOM     16  C   UNL     1      47.258  15.470  21.105  0.00  0.00    +0.018 C 
ATOM     17  C   UNL     1      47.648  14.015  20.873  0.00  0.00    +0.009 C 
ATOM     18  C   UNL     1      47.544  13.578  19.417  0.00  0.00    -0.003 C 
ATOM     19  C   UNL     1      48.896  13.618  18.737  0.00  0.00    -0.037 C 
ATOM     20  C   UNL     1      49.695  14.873  19.096  0.00  0.00    +0.034 C 
ATOM     21  C   UNL     1      49.711  12.400  19.243  0.00  0.00    +0.016 C 
ATOM     22  C   UNL     1      48.829  13.488  17.218  0.00  0.00    +0.169 C 
ATOM     25  C   UNL     1      47.787  14.462  16.671  0.00  0.00    -0.015 C 
ATOM     26  C   UNL     1      46.422  14.029  17.172  0.00  0.00    +0.014 C 
ATOM     27  C   UNL     1      46.313  14.052  18.704  0.00  0.00    -0.028 C 
ATOM     28  C   UNL     1      45.190  13.008  18.983  0.00  0.00    +0.008 C 
ATOM     29  C   UNL     1      45.785  15.429  19.112  0.00  0.00    +0.014 C 
ATOM     30  C   UNL     1      46.583  16.476  18.329  0.00  0.00    +0.010 C 
ATOM     31  C   UNL     1      46.135  17.893  18.659  0.00  0.00    -0.003 C 
ATOM     32  C   UNL     1      46.281  18.156  20.166  0.00  0.00    +0.011 C 
ATOM     33  C   UNL     1      45.920  19.600  20.430  0.00  0.00    -0.000 C 
ENDROOT
BRANCH   3   2
ATOM      1  C   UNL     1      47.443  22.635  21.927  0.00  0.00    +0.069 C 
ATOM      2  C   UNL     1      47.545  21.268  21.301  0.00  0.00    -0.116 C 
ATOM     34  C   UNL     1      48.483  21.019  20.422  0.00  0.00    -0.007 C 
ENDBRANCH   3   2
BRANCH  22  23
ATOM     23  O   UNL     1      50.108  13.802  16.660  0.00  0.00    -0.563 OA
ATOM     24  H   UNL     1      50.521  14.588  17.044  0.00  0.00    +0.375 HD
ENDBRANCH  22  23
BRANCH   6   7
ATOM      7  C   UNL     1      43.956  20.416  19.047  0.00  0.00    +0.175 C 
BRANCH   7   8
ATOM      8  O   UNL     1      43.865  21.842  19.048  0.00  0.00    -0.569 OA
ATOM      9  H   UNL     1      43.400  22.208  18.283  0.00  0.00    +0.378 HD
ENDBRANCH   7   8
ENDBRANCH   6   7
TORSDOF 4
ENDMDL
MODEL 8
REMARK VINA RESULT:      -5.3      2.515      7.303
REMARK  Name = ZINC95486118
REMARK  10 active torsions:
REMARK  status: ('A' for Active; 'I' for Inactive)
REMARK    1  A    between atoms: C1_1  and  C2_2
REMARK    2  A    between atoms: C2_2  and  C4_4
REMARK    3  A    between atoms: C7_8  and  C30_37
REMARK    4  A    between atoms: C13_17  and  C29_36
REMARK    5  A    between atoms: C16_20  and  O1_35
REMARK    6  A    between atoms: C17_22  and  C27_33
REMARK    7  A    between atoms: C17_22  and  C28_34
REMARK    8  A    between atoms: C21_27  and  C26_32
REMARK    9  A    between atoms: C22_28  and  C25_31
REMARK   10  A    between atoms: C30_37  and  O2_38
REMARK                            x       y       z     vdW  Elec       q    Type
REMARK                         _______ _______ _______ _____ _____    ______ ____
ROOT
ATOM      3  C   UNL     1      43.614  20.735  18.862  0.00  0.00    +0.036 C 
ATOM      4  C   UNL     1      43.776  22.230  19.207  0.00  0.00    +0.015 C 
ATOM      5  C   UNL     1      43.937  22.273  20.740  0.00  0.00    +0.019 C 
ATOM      6  C   UNL     1      44.718  20.963  21.082  0.00  0.00    -0.038 C 
ATOM     10  C   UNL     1      46.194  21.330  21.010  0.00  0.00    +0.020 C 
ATOM     11  C   UNL     1      47.112  20.160  20.680  0.00  0.00    +0.014 C 
ATOM     12  C   UNL     1      46.671  19.515  19.364  0.00  0.00    -0.029 C 
ATOM     13  C   UNL     1      46.656  20.593  18.274  0.00  0.00    +0.018 C 
ATOM     14  C   UNL     1      47.652  18.417  18.923  0.00  0.00    -0.028 C 
ATOM     15  C   UNL     1      49.013  19.109  18.742  0.00  0.00    +0.017 C 
ATOM     16  C   UNL     1      47.226  17.849  17.568  0.00  0.00    +0.018 C 
ATOM     17  C   UNL     1      48.246  16.823  17.091  0.00  0.00    +0.009 C 
ATOM     18  C   UNL     1      48.468  15.678  18.071  0.00  0.00    -0.003 C 
ATOM     19  C   UNL     1      47.667  14.456  17.675  0.00  0.00    -0.037 C 
ATOM     20  C   UNL     1      46.245  14.807  17.230  0.00  0.00    +0.034 C 
ATOM     21  C   UNL     1      48.376  13.806  16.460  0.00  0.00    +0.016 C 
ATOM     22  C   UNL     1      47.598  13.382  18.757  0.00  0.00    +0.169 C 
ATOM     25  C   UNL     1      47.205  14.026  20.086  0.00  0.00    -0.015 C 
ATOM     26  C   UNL     1      48.325  14.957  20.513  0.00  0.00    +0.014 C 
ATOM     27  C   UNL     1      48.574  16.092  19.509  0.00  0.00    -0.028 C 
ATOM     28  C   UNL     1      50.065  16.461  19.772  0.00  0.00    +0.008 C 
ATOM     29  C   UNL     1      47.714  17.285  19.932  0.00  0.00    +0.014 C 
ATOM     30  C   UNL     1      46.311  16.752  20.239  0.00  0.00    +0.010 C 
ATOM     31  C   UNL     1      45.366  17.863  20.676  0.00  0.00    -0.003 C 
ATOM     32  C   UNL     1      45.278  18.941  19.585  0.00  0.00    +0.011 C 
ATOM     33  C   UNL     1      44.259  19.969  20.019  0.00  0.00    -0.000 C 
ENDROOT
BRANCH   3   2
ATOM      1  C   UNL     1      41.660  19.039  19.240  0.00  0.00    +0.069 C 
ATOM      2  C   UNL     1      42.144  20.389  18.779  0.00  0.00    -0.116 C 
ATOM     34  C   UNL     1      41.292  21.265  18.308  0.00  0.00    -0.007 C 
ENDBRANCH   3   2
BRANCH  22  23
ATOM     23  O   UNL     1      46.616  12.408  18.395  0.00  0.00    -0.563 OA
ATOM     24  H   UNL     1      46.812  11.516  18.714  0.00  0.00    +0.375 HD
ENDBRANCH  22  23
BRANCH   6   7
ATOM      7  C   UNL     1      44.342  20.487  22.501  0.00  0.00    +0.175 C 
BRANCH   7   8
ATOM      8  O   UNL     1      42.990  20.020  22.505  0.00  0.00    -0.569 OA
ATOM      9  H   UNL     1      42.728  19.580  23.326  0.00  0.00    +0.378 HD
ENDBRANCH   7   8
ENDBRANCH   6   7
TORSDOF 4
ENDMDL
MODEL 9
REMARK VINA RESULT:      -5.3      2.958      6.803
REMARK  Name = ZINC95486118
REMARK  10 active torsions:
REMARK  status: ('A' for Active; 'I' for Inactive)
REMARK    1  A    between atoms: C1_1  and  C2_2
REMARK    2  A    between atoms: C2_2  and  C4_4
REMARK    3  A    between atoms: C7_8  and  C30_37
REMARK    4  A    between atoms: C13_17  and  C29_36
REMARK    5  A    between atoms: C16_20  and  O1_35
REMARK    6  A    between atoms: C17_22  and  C27_33
REMARK    7  A    between atoms: C17_22  and  C28_34
REMARK    8  A    between atoms: C21_27  and  C26_32
REMARK    9  A    between atoms: C22_28  and  C25_31
REMARK   10  A    between atoms: C30_37  and  O2_38
REMARK                            x       y       z     vdW  Elec       q    Type
REMARK                         _______ _______ _______ _____ _____    ______ ____
ROOT
ATOM      3  C   UNL     1      45.865  16.137  20.525  0.00  0.00    +0.036 C 
ATOM      4  C   UNL     1      45.371  14.697  20.276  0.00  0.00    +0.015 C 
ATOM      5  C   UNL     1      45.464  14.499  18.750  0.00  0.00    +0.019 C 
ATOM      6  C   UNL     1      46.717  15.332  18.329  0.00  0.00    -0.038 C 
ATOM     10  C   UNL     1      47.901  14.378  18.431  0.00  0.00    +0.020 C 
ATOM     11  C   UNL     1      49.236  15.067  18.690  0.00  0.00    +0.014 C 
ATOM     12  C   UNL     1      49.139  15.914  19.961  0.00  0.00    -0.029 C 
ATOM     13  C   UNL     1      48.694  15.010  21.116  0.00  0.00    +0.018 C 
ATOM     14  C   UNL     1      50.502  16.517  20.335  0.00  0.00    -0.028 C 
ATOM     15  C   UNL     1      51.446  15.325  20.566  0.00  0.00    +0.017 C 
ATOM     16  C   UNL     1      50.388  17.291  21.650  0.00  0.00    +0.018 C 
ATOM     17  C   UNL     1      51.757  17.814  22.066  0.00  0.00    +0.009 C 
ATOM     18  C   UNL     1      52.420  18.697  21.016  0.00  0.00    -0.003 C 
ATOM     19  C   UNL     1      52.221  20.164  21.331  0.00  0.00    -0.037 C 
ATOM     20  C   UNL     1      50.795  20.476  21.791  0.00  0.00    +0.034 C 
ATOM     21  C   UNL     1      53.166  20.523  22.505  0.00  0.00    +0.016 C 
ATOM     22  C   UNL     1      52.588  21.100  20.182  0.00  0.00    +0.169 C 
ATOM     25  C   UNL     1      51.930  20.606  18.896  0.00  0.00    -0.015 C 
ATOM     26  C   UNL     1      52.540  19.265  18.532  0.00  0.00    +0.014 C 
ATOM     27  C   UNL     1      52.308  18.193  19.608  0.00  0.00    -0.028 C 
ATOM     28  C   UNL     1      53.496  17.211  19.375  0.00  0.00    +0.008 C 
ATOM     29  C   UNL     1      51.014  17.454  19.257  0.00  0.00    +0.014 C 
ATOM     30  C   UNL     1      49.962  18.512  18.911  0.00  0.00    +0.010 C 
ATOM     31  C   UNL     1      48.626  17.883  18.541  0.00  0.00    -0.003 C 
ATOM     32  C   UNL     1      48.115  17.010  19.697  0.00  0.00    +0.011 C 
ATOM     33  C   UNL     1      46.747  16.488  19.325  0.00  0.00    -0.000 C 
ENDROOT
BRANCH   3   2
ATOM      1  C   UNL     1      44.498  18.119  19.507  0.00  0.00    +0.069 C 
ATOM      2  C   UNL     1      44.682  17.077  20.580  0.00  0.00    -0.116 C 
ATOM     34  C   UNL     1      43.817  16.985  21.559  0.00  0.00    -0.007 C 
ENDBRANCH   3   2
BRANCH  22  23
ATOM     23  O   UNL     1      52.119  22.417  20.478  0.00  0.00    -0.563 OA
ATOM     24  H   UNL     1      51.419  22.444  21.145  0.00  0.00    +0.375 HD
ENDBRANCH  22  23
BRANCH   6   7
ATOM      7  C   UNL     1      46.546  15.838  16.881  0.00  0.00    +0.175 C 
BRANCH   7   8
ATOM      8  O   UNL     1      46.606  14.732  15.978  0.00  0.00    -0.569 OA
ATOM      9  H   UNL     1      46.344  13.887  16.372  0.00  0.00    +0.378 HD
ENDBRANCH   7   8
ENDBRANCH   6   7
TORSDOF 4
ENDMDL
