MODEL 1
REMARK VINA RESULT:      -6.5      0.000      0.000
REMARK  Name = ZINC95486172
REMARK  14 active torsions:
REMARK  status: ('A' for Active; 'I' for Inactive)
REMARK    1  A    between atoms: C1_1  and  C2_2
REMARK    2  A    between atoms: C2_2  and  C4_4
REMARK    3  A    between atoms: C7_8  and  C33_42
REMARK    4  A    between atoms: C8_9  and  C32_41
REMARK    5  A    between atoms: C11_12  and  C31_40
REMARK    6  A    between atoms: C12_13  and  C30_39
REMARK    7  A    between atoms: C16_18  and  C29_38
REMARK    8  A    between atoms: C18_20  and  O5_37
REMARK    9  A    between atoms: C19_22  and  C28_36
REMARK   10  A    between atoms: C20_23  and  C27_34
REMARK   11  A    between atoms: C23_26  and  O3_33
REMARK   12  A    between atoms: C24_28  and  C25_29
REMARK   13  A    between atoms: C24_28  and  C26_30
REMARK   14  A    between atoms: C27_34  and  O4_35
REMARK                            x       y       z     vdW  Elec       q    Type
REMARK                         _______ _______ _______ _____ _____    ______ ____
ROOT
ATOM      3  C   UNL     1      44.432  22.960  20.772  0.00  0.00    +0.014 C 
ATOM      4  C   UNL     1      43.410  22.349  19.782  0.00  0.00    +0.001 C 
ATOM      5  C   UNL     1      43.814  20.844  19.633  0.00  0.00    +0.011 C 
ATOM      6  C   UNL     1      45.352  20.963  19.790  0.00  0.00    -0.026 C 
ATOM      7  C   UNL     1      45.778  21.768  18.543  0.00  0.00    +0.016 C 
ATOM      8  C   UNL     1      46.144  19.682  19.895  0.00  0.00    -0.005 C 
ATOM      9  C   UNL     1      45.295  18.692  20.722  0.00  0.00    +0.006 C 
ATOM     10  C   UNL     1      46.292  18.979  18.532  0.00  0.00    -0.004 C 
ATOM     11  C   UNL     1      47.011  17.637  18.746  0.00  0.00    +0.022 C 
ATOM     12  C   UNL     1      48.404  17.888  19.314  0.00  0.00    +0.026 C 
ATOM     13  C   UNL     1      48.367  18.634  20.636  0.00  0.00    -0.003 C 
ATOM     14  C   UNL     1      47.820  17.817  21.810  0.00  0.00    +0.007 C 
ATOM     15  C   UNL     1      49.809  18.977  21.042  0.00  0.00    -0.001 C 
ATOM     16  C   UNL     1      50.734  17.773  21.003  0.00  0.00    +0.175 C 
ATOM     19  C   UNL     1      50.707  16.952  19.713  0.00  0.00    +0.015 C 
ATOM     20  C   UNL     1      51.321  15.571  20.109  0.00  0.00    +0.003 C 
ATOM     21  C   UNL     1      51.642  17.534  18.670  0.00  0.00    -0.113 C 
ATOM     25  C   UNL     1      53.093  17.192  19.095  0.00  0.00    +0.012 C 
ATOM     26  C   UNL     1      51.459  16.942  17.273  0.00  0.00    +0.167 C 
ATOM     29  C   UNL     1      49.982  16.971  16.880  0.00  0.00    -0.005 C 
ATOM     30  C   UNL     1      49.245  16.060  17.853  0.00  0.00    +0.005 C 
ATOM     31  C   UNL     1      49.282  16.652  19.273  0.00  0.00    -0.007 C 
ATOM     35  C   UNL     1      47.544  19.921  20.459  0.00  0.00    -0.021 C 
ATOM     36  C   UNL     1      48.364  20.776  19.458  0.00  0.00    +0.020 C 
ATOM     37  C   UNL     1      47.520  20.753  21.739  0.00  0.00    +0.008 C 
ATOM     38  C   UNL     1      46.813  22.104  21.486  0.00  0.00    +0.021 C 
ATOM     39  C   UNL     1      45.394  21.807  21.080  0.00  0.00    -0.032 C 
ATOM     40  C   UNL     1      44.720  21.117  22.291  0.00  0.00    +0.013 C 
ENDROOT
BRANCH   3   2
ATOM      1  C   UNL     1      44.714  24.763  18.926  0.00  0.00    +0.067 C 
ATOM      2  C   UNL     1      45.088  24.200  20.274  0.00  0.00    -0.102 C 
ATOM     41  C   UNL     1      45.993  24.803  21.006  0.00  0.00    -0.010 C 
ENDBRANCH   3   2
BRANCH  21  22
ATOM     22  C   UNL     1      51.559  19.033  18.560  0.00  0.00    +0.530 C 
ATOM     23  O   UNL     1      50.733  19.544  17.823  0.00  0.00    -0.672 OA
ATOM     24  O   UNL     1      52.317  19.734  19.206  0.00  0.00    -0.706 OA
ENDBRANCH  21  22
BRANCH  16  17
ATOM     17  O   UNL     1      50.516  16.919  22.131  0.00  0.00    -0.570 OA
ATOM     18  H   UNL     1      49.622  16.970  22.497  0.00  0.00    +0.365 HD
ENDBRANCH  16  17
BRANCH  26  27
ATOM     27  O   UNL     1      52.214  17.712  16.331  0.00  0.00    -0.547 OA
ATOM     28  H   UNL     1      52.840  17.192  15.810  0.00  0.00    +0.356 HD
ENDBRANCH  26  27
BRANCH  31  32
ATOM     32  C   UNL     1      48.725  15.515  20.156  0.00  0.00    +0.171 C 
BRANCH  32  33
ATOM     33  O   UNL     1      48.129  14.515  19.327  0.00  0.00    -0.565 OA
ATOM     34  H   UNL     1      48.548  14.422  18.461  0.00  0.00    +0.360 HD
ENDBRANCH  32  33
ENDBRANCH  31  32
TORSDOF 6
ENDMDL
MODEL 2
REMARK VINA RESULT:      -5.9      2.135      4.546
REMARK  Name = ZINC95486172
REMARK  14 active torsions:
REMARK  status: ('A' for Active; 'I' for Inactive)
REMARK    1  A    between atoms: C1_1  and  C2_2
REMARK    2  A    between atoms: C2_2  and  C4_4
REMARK    3  A    between atoms: C7_8  and  C33_42
REMARK    4  A    between atoms: C8_9  and  C32_41
REMARK    5  A    between atoms: C11_12  and  C31_40
REMARK    6  A    between atoms: C12_13  and  C30_39
REMARK    7  A    between atoms: C16_18  and  C29_38
REMARK    8  A    between atoms: C18_20  and  O5_37
REMARK    9  A    between atoms: C19_22  and  C28_36
REMARK   10  A    between atoms: C20_23  and  C27_34
REMARK   11  A    between atoms: C23_26  and  O3_33
REMARK   12  A    between atoms: C24_28  and  C25_29
REMARK   13  A    between atoms: C24_28  and  C26_30
REMARK   14  A    between atoms: C27_34  and  O4_35
REMARK                            x       y       z     vdW  Elec       q    Type
REMARK                         _______ _______ _______ _____ _____    ______ ____
ROOT
ATOM      3  C   UNL     1      43.919  20.428  20.704  0.00  0.00    +0.014 C 
ATOM      4  C   UNL     1      43.952  20.018  22.197  0.00  0.00    +0.001 C 
ATOM      5  C   UNL     1      45.304  19.253  22.394  0.00  0.00    +0.011 C 
ATOM      6  C   UNL     1      45.438  18.583  21.002  0.00  0.00    -0.026 C 
ATOM      7  C   UNL     1      44.252  17.596  20.964  0.00  0.00    +0.016 C 
ATOM      8  C   UNL     1      46.733  17.874  20.690  0.00  0.00    -0.005 C 
ATOM      9  C   UNL     1      47.868  18.703  21.330  0.00  0.00    +0.006 C 
ATOM     10  C   UNL     1      46.835  16.513  21.405  0.00  0.00    -0.004 C 
ATOM     11  C   UNL     1      48.222  15.911  21.124  0.00  0.00    +0.022 C 
ATOM     12  C   UNL     1      48.386  15.684  19.624  0.00  0.00    +0.026 C 
ATOM     13  C   UNL     1      48.241  16.965  18.823  0.00  0.00    -0.003 C 
ATOM     14  C   UNL     1      49.395  17.957  18.999  0.00  0.00    +0.007 C 
ATOM     15  C   UNL     1      48.262  16.609  17.328  0.00  0.00    -0.001 C 
ATOM     16  C   UNL     1      49.446  15.736  16.947  0.00  0.00    +0.175 C 
ATOM     19  C   UNL     1      49.664  14.493  17.811  0.00  0.00    +0.015 C 
ATOM     20  C   UNL     1      51.148  14.081  17.546  0.00  0.00    +0.003 C 
ATOM     21  C   UNL     1      48.822  13.330  17.324  0.00  0.00    -0.113 C 
ATOM     25  C   UNL     1      49.472  12.787  16.025  0.00  0.00    +0.012 C 
ATOM     26  C   UNL     1      48.770  12.150  18.296  0.00  0.00    +0.167 C 
ATOM     29  C   UNL     1      48.413  12.643  19.698  0.00  0.00    -0.005 C 
ATOM     30  C   UNL     1      49.548  13.550  20.155  0.00  0.00    +0.005 C 
ATOM     31  C   UNL     1      49.592  14.826  19.294  0.00  0.00    -0.007 C 
ATOM     35  C   UNL     1      46.908  17.636  19.191  0.00  0.00    -0.021 C 
ATOM     36  C   UNL     1      45.821  16.645  18.697  0.00  0.00    +0.020 C 
ATOM     37  C   UNL     1      46.669  18.901  18.370  0.00  0.00    +0.008 C 
ATOM     38  C   UNL     1      45.260  19.467  18.657  0.00  0.00    +0.021 C 
ATOM     39  C   UNL     1      45.201  19.825  20.118  0.00  0.00    -0.032 C 
ATOM     40  C   UNL     1      46.239  20.950  20.344  0.00  0.00    +0.013 C 
ENDROOT
BRANCH   3   2
ATOM      1  C   UNL     1      41.626  19.211  20.712  0.00  0.00    +0.067 C 
ATOM      2  C   UNL     1      42.668  20.034  19.998  0.00  0.00    -0.102 C 
ATOM     41  C   UNL     1      42.473  20.402  18.755  0.00  0.00    -0.010 C 
ENDBRANCH   3   2
BRANCH  21  22
ATOM     22  C   UNL     1      47.408  13.715  16.979  0.00  0.00    +0.530 C 
ATOM     23  O   UNL     1      47.123  14.027  15.836  0.00  0.00    -0.672 OA
ATOM     24  O   UNL     1      46.548  13.715  17.843  0.00  0.00    -0.706 OA
ENDBRANCH  21  22
BRANCH  16  17
ATOM     17  O   UNL     1      50.652  16.504  16.881  0.00  0.00    -0.570 OA
ATOM     18  H   UNL     1      50.559  17.344  16.411  0.00  0.00    +0.365 HD
ENDBRANCH  16  17
BRANCH  26  27
ATOM     27  O   UNL     1      47.777  11.218  17.856  0.00  0.00    -0.547 OA
ATOM     28  H   UNL     1      47.183  10.917  18.556  0.00  0.00    +0.356 HD
ENDBRANCH  26  27
BRANCH  31  32
ATOM     32  C   UNL     1      50.916  15.500  19.710  0.00  0.00    +0.171 C 
BRANCH  32  33
ATOM     33  O   UNL     1      51.429  14.862  20.881  0.00  0.00    -0.565 OA
ATOM     34  H   UNL     1      50.914  14.097  21.170  0.00  0.00    +0.360 HD
ENDBRANCH  32  33
ENDBRANCH  31  32
TORSDOF 6
ENDMDL
MODEL 3
REMARK VINA RESULT:      -5.8      1.289      1.481
REMARK  Name = ZINC95486172
REMARK  14 active torsions:
REMARK  status: ('A' for Active; 'I' for Inactive)
REMARK    1  A    between atoms: C1_1  and  C2_2
REMARK    2  A    between atoms: C2_2  and  C4_4
REMARK    3  A    between atoms: C7_8  and  C33_42
REMARK    4  A    between atoms: C8_9  and  C32_41
REMARK    5  A    between atoms: C11_12  and  C31_40
REMARK    6  A    between atoms: C12_13  and  C30_39
REMARK    7  A    between atoms: C16_18  and  C29_38
REMARK    8  A    between atoms: C18_20  and  O5_37
REMARK    9  A    between atoms: C19_22  and  C28_36
REMARK   10  A    between atoms: C20_23  and  C27_34
REMARK   11  A    between atoms: C23_26  and  O3_33
REMARK   12  A    between atoms: C24_28  and  C25_29
REMARK   13  A    between atoms: C24_28  and  C26_30
REMARK   14  A    between atoms: C27_34  and  O4_35
REMARK                            x       y       z     vdW  Elec       q    Type
REMARK                         _______ _______ _______ _____ _____    ______ ____
ROOT
ATOM      3  C   UNL     1      44.174  21.923  20.654  0.00  0.00    +0.014 C 
ATOM      4  C   UNL     1      43.301  21.553  19.430  0.00  0.00    +0.001 C 
ATOM      5  C   UNL     1      43.614  20.049  19.127  0.00  0.00    +0.011 C 
ATOM      6  C   UNL     1      45.105  19.995  19.550  0.00  0.00    -0.026 C 
ATOM      7  C   UNL     1      45.802  20.915  18.524  0.00  0.00    +0.016 C 
ATOM      8  C   UNL     1      45.770  18.641  19.593  0.00  0.00    -0.005 C 
ATOM      9  C   UNL     1      44.719  17.636  20.113  0.00  0.00    +0.006 C 
ATOM     10  C   UNL     1      46.105  18.116  18.184  0.00  0.00    -0.004 C 
ATOM     11  C   UNL     1      46.675  16.694  18.310  0.00  0.00    +0.022 C 
ATOM     12  C   UNL     1      47.961  16.730  19.131  0.00  0.00    +0.026 C 
ATOM     13  C   UNL     1      47.746  17.292  20.524  0.00  0.00    -0.003 C 
ATOM     14  C   UNL     1      46.942  16.382  21.458  0.00  0.00    +0.007 C 
ATOM     15  C   UNL     1      49.115  17.436  21.208  0.00  0.00    -0.001 C 
ATOM     16  C   UNL     1      49.941  16.163  21.143  0.00  0.00    +0.175 C 
ATOM     19  C   UNL     1      50.083  15.529  19.759  0.00  0.00    +0.015 C 
ATOM     20  C   UNL     1      50.515  14.054  20.041  0.00  0.00    +0.003 C 
ATOM     21  C   UNL     1      51.227  16.151  18.982  0.00  0.00    -0.113 C 
ATOM     25  C   UNL     1      52.552  15.617  19.584  0.00  0.00    +0.012 C 
ATOM     26  C   UNL     1      51.251  15.773  17.501  0.00  0.00    +0.167 C 
ATOM     29  C   UNL     1      49.873  15.998  16.880  0.00  0.00    -0.005 C 
ATOM     30  C   UNL     1      48.911  15.041  17.572  0.00  0.00    +0.005 C 
ATOM     31  C   UNL     1      48.739  15.431  19.051  0.00  0.00    -0.007 C 
ATOM     35  C   UNL     1      47.062  18.665  20.408  0.00  0.00    -0.021 C 
ATOM     36  C   UNL     1      48.106  19.563  19.693  0.00  0.00    +0.020 C 
ATOM     37  C   UNL     1      46.874  19.317  21.776  0.00  0.00    +0.008 C 
ATOM     38  C   UNL     1      46.323  20.752  21.614  0.00  0.00    +0.021 C 
ATOM     39  C   UNL     1      44.980  20.651  20.941  0.00  0.00    -0.032 C 
ATOM     40  C   UNL     1      44.054  19.874  21.908  0.00  0.00    +0.013 C 
ENDROOT
BRANCH   3   2
ATOM      1  C   UNL     1      46.156  23.434  21.381  0.00  0.00    +0.067 C 
ATOM      2  C   UNL     1      44.997  23.149  20.460  0.00  0.00    -0.102 C 
ATOM     41  C   UNL     1      44.713  23.981  19.488  0.00  0.00    -0.010 C 
ENDBRANCH   3   2
BRANCH  21  22
ATOM     22  C   UNL     1      51.274  17.653  19.083  0.00  0.00    +0.530 C 
ATOM     23  O   UNL     1      50.626  18.336  18.310  0.00  0.00    -0.672 OA
ATOM     24  O   UNL     1      51.961  18.185  19.939  0.00  0.00    -0.706 OA
ENDBRANCH  21  22
BRANCH  16  17
ATOM     17  O   UNL     1      49.466  15.191  22.081  0.00  0.00    -0.570 OA
ATOM     18  H   UNL     1      49.552  14.277  21.778  0.00  0.00    +0.365 HD
ENDBRANCH  16  17
BRANCH  26  27
ATOM     27  O   UNL     1      52.214  16.585  16.822  0.00  0.00    -0.547 OA
ATOM     28  H   UNL     1      53.104  16.537  17.198  0.00  0.00    +0.356 HD
ENDBRANCH  26  27
BRANCH  31  32
ATOM     32  C   UNL     1      47.954  14.246  19.651  0.00  0.00    +0.171 C 
BRANCH  32  33
ATOM     33  O   UNL     1      47.533  13.372  18.602  0.00  0.00    -0.565 OA
ATOM     34  H   UNL     1      46.958  13.791  17.948  0.00  0.00    +0.360 HD
ENDBRANCH  32  33
ENDBRANCH  31  32
TORSDOF 6
ENDMDL
MODEL 4
REMARK VINA RESULT:      -5.8      3.383      5.588
REMARK  Name = ZINC95486172
REMARK  14 active torsions:
REMARK  status: ('A' for Active; 'I' for Inactive)
REMARK    1  A    between atoms: C1_1  and  C2_2
REMARK    2  A    between atoms: C2_2  and  C4_4
REMARK    3  A    between atoms: C7_8  and  C33_42
REMARK    4  A    between atoms: C8_9  and  C32_41
REMARK    5  A    between atoms: C11_12  and  C31_40
REMARK    6  A    between atoms: C12_13  and  C30_39
REMARK    7  A    between atoms: C16_18  and  C29_38
REMARK    8  A    between atoms: C18_20  and  O5_37
REMARK    9  A    between atoms: C19_22  and  C28_36
REMARK   10  A    between atoms: C20_23  and  C27_34
REMARK   11  A    between atoms: C23_26  and  O3_33
REMARK   12  A    between atoms: C24_28  and  C25_29
REMARK   13  A    between atoms: C24_28  and  C26_30
REMARK   14  A    between atoms: C27_34  and  O4_35
REMARK                            x       y       z     vdW  Elec       q    Type
REMARK                         _______ _______ _______ _____ _____    ______ ____
ROOT
ATOM      3  C   UNL     1      49.320  19.966  20.106  0.00  0.00    +0.014 C 
ATOM      4  C   UNL     1      48.210  20.551  19.197  0.00  0.00    +0.001 C 
ATOM      5  C   UNL     1      47.346  19.326  18.744  0.00  0.00    +0.011 C 
ATOM      6  C   UNL     1      48.445  18.233  18.681  0.00  0.00    -0.026 C 
ATOM      7  C   UNL     1      49.359  18.711  17.532  0.00  0.00    +0.016 C 
ATOM      8  C   UNL     1      48.000  16.809  18.453  0.00  0.00    -0.005 C 
ATOM      9  C   UNL     1      46.677  16.618  19.226  0.00  0.00    +0.006 C 
ATOM     10  C   UNL     1      47.599  16.555  16.987  0.00  0.00    -0.004 C 
ATOM     11  C   UNL     1      47.058  15.121  16.865  0.00  0.00    +0.022 C 
ATOM     12  C   UNL     1      48.151  14.128  17.247  0.00  0.00    +0.026 C 
ATOM     13  C   UNL     1      48.658  14.337  18.662  0.00  0.00    -0.003 C 
ATOM     14  C   UNL     1      47.656  13.957  19.757  0.00  0.00    +0.007 C 
ATOM     15  C   UNL     1      49.856  13.402  18.893  0.00  0.00    -0.001 C 
ATOM     16  C   UNL     1      49.559  11.961  18.517  0.00  0.00    +0.175 C 
ATOM     19  C   UNL     1      48.953  11.744  17.130  0.00  0.00    +0.015 C 
ATOM     20  C   UNL     1      48.309  10.322  17.195  0.00  0.00    +0.003 C 
ATOM     21  C   UNL     1      50.030  11.659  16.065  0.00  0.00    -0.113 C 
ATOM     25  C   UNL     1      50.719  10.277  16.201  0.00  0.00    +0.012 C 
ATOM     26  C   UNL     1      49.496  11.728  14.634  0.00  0.00    +0.167 C 
ATOM     29  C   UNL     1      48.555  12.923  14.483  0.00  0.00    -0.005 C 
ATOM     30  C   UNL     1      47.362  12.668  15.395  0.00  0.00    +0.005 C 
ATOM     31  C   UNL     1      47.799  12.702  16.870  0.00  0.00    -0.007 C 
ATOM     35  C   UNL     1      49.088  15.804  18.827  0.00  0.00    -0.021 C 
ATOM     36  C   UNL     1      50.294  15.969  17.865  0.00  0.00    +0.020 C 
ATOM     37  C   UNL     1      49.670  16.067  20.213  0.00  0.00    +0.008 C 
ATOM     38  C   UNL     1      50.226  17.506  20.296  0.00  0.00    +0.021 C 
ATOM     39  C   UNL     1      49.078  18.453  20.070  0.00  0.00    -0.032 C 
ATOM     40  C   UNL     1      48.088  18.240  21.240  0.00  0.00    +0.013 C 
ENDROOT
BRANCH   3   2
ATOM      1  C   UNL     1      51.866  20.034  20.606  0.00  0.00    +0.067 C 
ATOM      2  C   UNL     1      50.696  20.385  19.722  0.00  0.00    -0.102 C 
ATOM     41  C   UNL     1      50.892  21.059  18.616  0.00  0.00    -0.010 C 
ENDBRANCH   3   2
BRANCH  21  22
ATOM     22  C   UNL     1      51.106  12.701  16.215  0.00  0.00    +0.530 C 
ATOM     23  O   UNL     1      50.950  13.811  15.736  0.00  0.00    -0.672 OA
ATOM     24  O   UNL     1      52.133  12.435  16.815  0.00  0.00    -0.706 OA
ENDBRANCH  21  22
BRANCH  16  17
ATOM     17  O   UNL     1      48.747  11.325  19.510  0.00  0.00    -0.570 OA
ATOM     18  H   UNL     1      48.918  10.379  19.611  0.00  0.00    +0.365 HD
ENDBRANCH  16  17
BRANCH  26  27
ATOM     27  O   UNL     1      50.594  11.873  13.727  0.00  0.00    -0.547 OA
ATOM     28  H   UNL     1      50.487  11.385  12.899  0.00  0.00    +0.356 HD
ENDBRANCH  26  27
BRANCH  31  32
ATOM     32  C   UNL     1      46.557  12.190  17.629  0.00  0.00    +0.171 C 
BRANCH  32  33
ATOM     33  O   UNL     1      45.440  12.143  16.740  0.00  0.00    -0.565 OA
ATOM     34  H   UNL     1      45.174  11.248  16.490  0.00  0.00    +0.360 HD
ENDBRANCH  32  33
ENDBRANCH  31  32
TORSDOF 6
ENDMDL
MODEL 5
REMARK VINA RESULT:      -5.4      3.060      8.208
REMARK  Name = ZINC95486172
REMARK  14 active torsions:
REMARK  status: ('A' for Active; 'I' for Inactive)
REMARK    1  A    between atoms: C1_1  and  C2_2
REMARK    2  A    between atoms: C2_2  and  C4_4
REMARK    3  A    between atoms: C7_8  and  C33_42
REMARK    4  A    between atoms: C8_9  and  C32_41
REMARK    5  A    between atoms: C11_12  and  C31_40
REMARK    6  A    between atoms: C12_13  and  C30_39
REMARK    7  A    between atoms: C16_18  and  C29_38
REMARK    8  A    between atoms: C18_20  and  O5_37
REMARK    9  A    between atoms: C19_22  and  C28_36
REMARK   10  A    between atoms: C20_23  and  C27_34
REMARK   11  A    between atoms: C23_26  and  O3_33
REMARK   12  A    between atoms: C24_28  and  C25_29
REMARK   13  A    between atoms: C24_28  and  C26_30
REMARK   14  A    between atoms: C27_34  and  O4_35
REMARK                            x       y       z     vdW  Elec       q    Type
REMARK                         _______ _______ _______ _____ _____    ______ ____
ROOT
ATOM      3  C   UNL     1      52.364  11.179  19.625  0.00  0.00    +0.014 C 
ATOM      4  C   UNL     1      52.762  11.176  21.122  0.00  0.00    +0.001 C 
ATOM      5  C   UNL     1      52.023  12.402  21.756  0.00  0.00    +0.011 C 
ATOM      6  C   UNL     1      52.038  13.378  20.551  0.00  0.00    -0.026 C 
ATOM      7  C   UNL     1      53.539  13.685  20.358  0.00  0.00    +0.016 C 
ATOM      8  C   UNL     1      51.243  14.654  20.676  0.00  0.00    -0.005 C 
ATOM      9  C   UNL     1      49.954  14.310  21.454  0.00  0.00    +0.006 C 
ATOM     10  C   UNL     1      51.944  15.687  21.578  0.00  0.00    -0.004 C 
ATOM     11  C   UNL     1      51.022  16.907  21.740  0.00  0.00    +0.022 C 
ATOM     12  C   UNL     1      50.773  17.544  20.377  0.00  0.00    +0.026 C 
ATOM     13  C   UNL     1      50.136  16.581  19.391  0.00  0.00    -0.003 C 
ATOM     14  C   UNL     1      48.681  16.221  19.708  0.00  0.00    +0.007 C 
ATOM     15  C   UNL     1      50.075  17.263  18.015  0.00  0.00    -0.001 C 
ATOM     16  C   UNL     1      49.448  18.645  18.069  0.00  0.00    +0.175 C 
ATOM     19  C   UNL     1      50.012  19.593  19.127  0.00  0.00    +0.015 C 
ATOM     20  C   UNL     1      48.914  20.691  19.302  0.00  0.00    +0.003 C 
ATOM     21  C   UNL     1      51.242  20.320  18.615  0.00  0.00    -0.113 C 
ATOM     25  C   UNL     1      50.767  21.400  17.610  0.00  0.00    +0.012 C 
ATOM     26  C   UNL     1      52.020  21.064  19.701  0.00  0.00    +0.167 C 
ATOM     29  C   UNL     1      52.286  20.135  20.885  0.00  0.00    -0.005 C 
ATOM     30  C   UNL     1      50.930  19.769  21.477  0.00  0.00    +0.005 C 
ATOM     31  C   UNL     1      50.127  18.912  20.483  0.00  0.00    -0.007 C 
ATOM     35  C   UNL     1      50.991  15.306  19.317  0.00  0.00    -0.021 C 
ATOM     36  C   UNL     1      52.342  15.774  18.712  0.00  0.00    +0.020 C 
ATOM     37  C   UNL     1      50.439  14.318  18.292  0.00  0.00    +0.008 C 
ATOM     38  C   UNL     1      51.399  13.117  18.135  0.00  0.00    +0.021 C 
ATOM     39  C   UNL     1      51.487  12.426  19.470  0.00  0.00    -0.032 C 
ATOM     40  C   UNL     1      50.072  11.886  19.786  0.00  0.00    +0.013 C 
ENDROOT
BRANCH   3   2
ATOM      1  C   UNL     1      53.318  10.694  17.260  0.00  0.00    +0.067 C 
ATOM      2  C   UNL     1      53.524  11.114  18.692  0.00  0.00    -0.102 C 
ATOM     41  C   UNL     1      54.725  11.422  19.117  0.00  0.00    -0.010 C 
ENDBRANCH   3   2
BRANCH  21  22
ATOM     22  C   UNL     1      52.203  19.426  17.877  0.00  0.00    +0.530 C 
ATOM     23  O   UNL     1      53.002  18.747  18.498  0.00  0.00    -0.672 OA
ATOM     24  O   UNL     1      52.181  19.382  16.659  0.00  0.00    -0.706 OA
ENDBRANCH  21  22
BRANCH  16  17
ATOM     17  O   UNL     1      48.025  18.559  18.198  0.00  0.00    -0.570 OA
ATOM     18  H   UNL     1      47.608  19.375  18.509  0.00  0.00    +0.365 HD
ENDBRANCH  16  17
BRANCH  26  27
ATOM     27  O   UNL     1      53.269  21.512  19.163  0.00  0.00    -0.547 OA
ATOM     28  H   UNL     1      53.223  21.778  18.234  0.00  0.00    +0.356 HD
ENDBRANCH  26  27
BRANCH  31  32
ATOM     32  C   UNL     1      48.721  18.842  21.116  0.00  0.00    +0.171 C 
BRANCH  32  33
ATOM     33  O   UNL     1      48.756  19.425  22.420  0.00  0.00    -0.565 OA
ATOM     34  H   UNL     1      48.468  20.347  22.447  0.00  0.00    +0.360 HD
ENDBRANCH  32  33
ENDBRANCH  31  32
TORSDOF 6
ENDMDL
MODEL 6
REMARK VINA RESULT:      -5.3      3.841      8.855
REMARK  Name = ZINC95486172
REMARK  14 active torsions:
REMARK  status: ('A' for Active; 'I' for Inactive)
REMARK    1  A    between atoms: C1_1  and  C2_2
REMARK    2  A    between atoms: C2_2  and  C4_4
REMARK    3  A    between atoms: C7_8  and  C33_42
REMARK    4  A    between atoms: C8_9  and  C32_41
REMARK    5  A    between atoms: C11_12  and  C31_40
REMARK    6  A    between atoms: C12_13  and  C30_39
REMARK    7  A    between atoms: C16_18  and  C29_38
REMARK    8  A    between atoms: C18_20  and  O5_37
REMARK    9  A    between atoms: C19_22  and  C28_36
REMARK   10  A    between atoms: C20_23  and  C27_34
REMARK   11  A    between atoms: C23_26  and  O3_33
REMARK   12  A    between atoms: C24_28  and  C25_29
REMARK   13  A    between atoms: C24_28  and  C26_30
REMARK   14  A    between atoms: C27_34  and  O4_35
REMARK                            x       y       z     vdW  Elec       q    Type
REMARK                         _______ _______ _______ _____ _____    ______ ____
ROOT
ATOM      3  C   UNL     1      50.912  11.772  13.800  0.00  0.00    +0.014 C 
ATOM      4  C   UNL     1      52.185  11.447  14.620  0.00  0.00    +0.001 C 
ATOM      5  C   UNL     1      51.723  11.400  16.116  0.00  0.00    +0.011 C 
ATOM      6  C   UNL     1      50.603  12.472  16.083  0.00  0.00    -0.026 C 
ATOM      7  C   UNL     1      51.368  13.781  15.790  0.00  0.00    +0.016 C 
ATOM      8  C   UNL     1      49.744  12.621  17.315  0.00  0.00    -0.005 C 
ATOM      9  C   UNL     1      49.526  11.204  17.889  0.00  0.00    +0.006 C 
ATOM     10  C   UNL     1      50.480  13.359  18.450  0.00  0.00    -0.004 C 
ATOM     11  C   UNL     1      49.580  13.370  19.696  0.00  0.00    +0.022 C 
ATOM     12  C   UNL     1      48.289  14.122  19.387  0.00  0.00    +0.026 C 
ATOM     13  C   UNL     1      47.516  13.504  18.237  0.00  0.00    -0.003 C 
ATOM     14  C   UNL     1      46.882  12.147  18.556  0.00  0.00    +0.007 C 
ATOM     15  C   UNL     1      46.327  14.417  17.902  0.00  0.00    -0.001 C 
ATOM     16  C   UNL     1      45.497  14.774  19.123  0.00  0.00    +0.175 C 
ATOM     19  C   UNL     1      46.275  15.305  20.327  0.00  0.00    +0.015 C 
ATOM     20  C   UNL     1      45.307  15.116  21.539  0.00  0.00    +0.003 C 
ATOM     21  C   UNL     1      46.509  16.799  20.217  0.00  0.00    -0.113 C 
ATOM     25  C   UNL     1      45.164  17.510  20.518  0.00  0.00    +0.012 C 
ATOM     26  C   UNL     1      47.514  17.347  21.231  0.00  0.00    +0.167 C 
ATOM     29  C   UNL     1      48.790  16.507  21.209  0.00  0.00    -0.005 C 
ATOM     30  C   UNL     1      48.409  15.105  21.669  0.00  0.00    +0.005 C 
ATOM     31  C   UNL     1      47.486  14.436  20.635  0.00  0.00    -0.007 C 
ATOM     35  C   UNL     1      48.449  13.377  17.021  0.00  0.00    -0.021 C 
ATOM     36  C   UNL     1      48.785  14.841  16.630  0.00  0.00    +0.020 C 
ATOM     37  C   UNL     1      47.714  12.819  15.804  0.00  0.00    +0.008 C 
ATOM     38  C   UNL     1      48.637  12.843  14.564  0.00  0.00    +0.021 C 
ATOM     39  C   UNL     1      49.819  11.959  14.858  0.00  0.00    -0.032 C 
ATOM     40  C   UNL     1      49.269  10.523  15.035  0.00  0.00    +0.013 C 
ENDROOT
BRANCH   3   2
ATOM      1  C   UNL     1      49.994  13.232  11.860  0.00  0.00    +0.067 C 
ATOM      2  C   UNL     1      51.074  12.920  12.864  0.00  0.00    -0.102 C 
ATOM     41  C   UNL     1      52.156  13.658  12.913  0.00  0.00    -0.010 C 
ENDBRANCH   3   2
BRANCH  21  22
ATOM     22  C   UNL     1      46.940  17.239  18.844  0.00  0.00    +0.530 C 
ATOM     23  O   UNL     1      48.122  17.240  18.548  0.00  0.00    -0.672 OA
ATOM     24  O   UNL     1      46.107  17.595  18.028  0.00  0.00    -0.706 OA
ENDBRANCH  21  22
BRANCH  16  17
ATOM     17  O   UNL     1      44.667  13.677  19.520  0.00  0.00    -0.570 OA
ATOM     18  H   UNL     1      43.991  13.910  20.171  0.00  0.00    +0.365 HD
ENDBRANCH  16  17
BRANCH  26  27
ATOM     27  O   UNL     1      47.833  18.701  20.894  0.00  0.00    -0.547 OA
ATOM     28  H   UNL     1      47.085  19.310  20.962  0.00  0.00    +0.356 HD
ENDBRANCH  26  27
BRANCH  31  32
ATOM     32  C   UNL     1      47.004  13.158  21.352  0.00  0.00    +0.171 C 
BRANCH  32  33
ATOM     33  O   UNL     1      47.814  12.923  22.505  0.00  0.00    -0.565 OA
ATOM     34  H   UNL     1      48.115  13.728  22.946  0.00  0.00    +0.360 HD
ENDBRANCH  32  33
ENDBRANCH  31  32
TORSDOF 6
ENDMDL
MODEL 7
REMARK VINA RESULT:      -5.2      1.453      3.774
REMARK  Name = ZINC95486172
REMARK  14 active torsions:
REMARK  status: ('A' for Active; 'I' for Inactive)
REMARK    1  A    between atoms: C1_1  and  C2_2
REMARK    2  A    between atoms: C2_2  and  C4_4
REMARK    3  A    between atoms: C7_8  and  C33_42
REMARK    4  A    between atoms: C8_9  and  C32_41
REMARK    5  A    between atoms: C11_12  and  C31_40
REMARK    6  A    between atoms: C12_13  and  C30_39
REMARK    7  A    between atoms: C16_18  and  C29_38
REMARK    8  A    between atoms: C18_20  and  O5_37
REMARK    9  A    between atoms: C19_22  and  C28_36
REMARK   10  A    between atoms: C20_23  and  C27_34
REMARK   11  A    between atoms: C23_26  and  O3_33
REMARK   12  A    between atoms: C24_28  and  C25_29
REMARK   13  A    between atoms: C24_28  and  C26_30
REMARK   14  A    between atoms: C27_34  and  O4_35
REMARK                            x       y       z     vdW  Elec       q    Type
REMARK                         _______ _______ _______ _____ _____    ______ ____
ROOT
ATOM      3  C   UNL     1      43.585  21.003  20.607  0.00  0.00    +0.014 C 
ATOM      4  C   UNL     1      43.641  20.867  22.149  0.00  0.00    +0.001 C 
ATOM      5  C   UNL     1      45.159  20.727  22.505  0.00  0.00    +0.011 C 
ATOM      6  C   UNL     1      45.658  19.963  21.252  0.00  0.00    -0.026 C 
ATOM      7  C   UNL     1      44.945  18.598  21.357  0.00  0.00    +0.016 C 
ATOM      8  C   UNL     1      47.148  19.777  21.096  0.00  0.00    -0.005 C 
ATOM      9  C   UNL     1      47.822  21.068  21.609  0.00  0.00    +0.006 C 
ATOM     10  C   UNL     1      47.697  18.686  22.035  0.00  0.00    -0.004 C 
ATOM     11  C   UNL     1      49.227  18.637  21.893  0.00  0.00    +0.022 C 
ATOM     12  C   UNL     1      49.596  18.271  20.459  0.00  0.00    +0.026 C 
ATOM     13  C   UNL     1      49.045  19.259  19.446  0.00  0.00    -0.003 C 
ATOM     14  C   UNL     1      49.715  20.636  19.476  0.00  0.00    +0.007 C 
ATOM     15  C   UNL     1      49.331  18.721  18.035  0.00  0.00    -0.001 C 
ATOM     16  C   UNL     1      50.786  18.332  17.837  0.00  0.00    +0.175 C 
ATOM     19  C   UNL     1      51.383  17.416  18.906  0.00  0.00    +0.015 C 
ATOM     20  C   UNL     1      52.929  17.580  18.749  0.00  0.00    +0.003 C 
ATOM     21  C   UNL     1      51.093  15.958  18.607  0.00  0.00    -0.113 C 
ATOM     25  C   UNL     1      52.011  15.524  17.435  0.00  0.00    +0.012 C 
ATOM     26  C   UNL     1      51.409  15.011  19.765  0.00  0.00    +0.167 C 
ATOM     29  C   UNL     1      50.770  15.529  21.054  0.00  0.00    -0.005 C 
ATOM     30  C   UNL     1      51.431  16.864  21.373  0.00  0.00    +0.005 C 
ATOM     31  C   UNL     1      51.061  17.911  20.308  0.00  0.00    -0.007 C 
ATOM     35  C   UNL     1      47.531  19.405  19.664  0.00  0.00    -0.021 C 
ATOM     36  C   UNL     1      46.949  18.007  19.322  0.00  0.00    +0.020 C 
ATOM     37  C   UNL     1      46.901  20.339  18.633  0.00  0.00    +0.008 C 
ATOM     38  C   UNL     1      45.363  20.348  18.787  0.00  0.00    +0.021 C 
ATOM     39  C   UNL     1      45.045  20.867  20.164  0.00  0.00    -0.032 C 
ATOM     40  C   UNL     1      45.554  22.328  20.217  0.00  0.00    +0.013 C 
ENDROOT
BRANCH   3   2
ATOM      1  C   UNL     1      42.055  18.911  20.739  0.00  0.00    +0.067 C 
ATOM      2  C   UNL     1      42.644  20.053  19.951  0.00  0.00    -0.102 C 
ATOM     41  C   UNL     1      42.329  20.208  18.689  0.00  0.00    -0.010 C 
ENDBRANCH   3   2
BRANCH  21  22
ATOM     22  C   UNL     1      49.675  15.706  18.169  0.00  0.00    +0.530 C 
ATOM     23  O   UNL     1      49.397  15.695  16.982  0.00  0.00    -0.672 OA
ATOM     24  O   UNL     1      48.805  15.513  19.001  0.00  0.00    -0.706 OA
ENDBRANCH  21  22
BRANCH  16  17
ATOM     17  O   UNL     1      51.610  19.489  17.667  0.00  0.00    -0.570 OA
ATOM     18  H   UNL     1      52.318  19.568  18.322  0.00  0.00    +0.365 HD
ENDBRANCH  16  17
BRANCH  26  27
ATOM     27  O   UNL     1      50.888  13.711  19.468  0.00  0.00    -0.547 OA
ATOM     28  H   UNL     1      50.324  13.346  20.164  0.00  0.00    +0.356 HD
ENDBRANCH  26  27
BRANCH  31  32
ATOM     32  C   UNL     1      51.988  19.102  20.632  0.00  0.00    +0.171 C 
BRANCH  32  33
ATOM     33  O   UNL     1      52.553  18.926  21.932  0.00  0.00    -0.565 OA
ATOM     34  H   UNL     1      52.900  19.739  22.324  0.00  0.00    +0.360 HD
ENDBRANCH  32  33
ENDBRANCH  31  32
TORSDOF 6
ENDMDL
MODEL 8
REMARK VINA RESULT:      -5.2      3.063      8.122
REMARK  Name = ZINC95486172
REMARK  14 active torsions:
REMARK  status: ('A' for Active; 'I' for Inactive)
REMARK    1  A    between atoms: C1_1  and  C2_2
REMARK    2  A    between atoms: C2_2  and  C4_4
REMARK    3  A    between atoms: C7_8  and  C33_42
REMARK    4  A    between atoms: C8_9  and  C32_41
REMARK    5  A    between atoms: C11_12  and  C31_40
REMARK    6  A    between atoms: C12_13  and  C30_39
REMARK    7  A    between atoms: C16_18  and  C29_38
REMARK    8  A    between atoms: C18_20  and  O5_37
REMARK    9  A    between atoms: C19_22  and  C28_36
REMARK   10  A    between atoms: C20_23  and  C27_34
REMARK   11  A    between atoms: C23_26  and  O3_33
REMARK   12  A    between atoms: C24_28  and  C25_29
REMARK   13  A    between atoms: C24_28  and  C26_30
REMARK   14  A    between atoms: C27_34  and  O4_35
REMARK                            x       y       z     vdW  Elec       q    Type
REMARK                         _______ _______ _______ _____ _____    ______ ____
ROOT
ATOM      3  C   UNL     1      50.597  10.804  16.468  0.00  0.00    +0.014 C 
ATOM      4  C   UNL     1      51.268  10.281  17.762  0.00  0.00    +0.001 C 
ATOM      5  C   UNL     1      50.865  11.295  18.885  0.00  0.00    +0.011 C 
ATOM      6  C   UNL     1      50.802  12.603  18.055  0.00  0.00    -0.026 C 
ATOM      7  C   UNL     1      52.268  12.823  17.622  0.00  0.00    +0.016 C 
ATOM      8  C   UNL     1      50.255  13.835  18.735  0.00  0.00    -0.005 C 
ATOM      9  C   UNL     1      49.101  13.372  19.651  0.00  0.00    +0.006 C 
ATOM     10  C   UNL     1      51.268  14.453  19.717  0.00  0.00    -0.004 C 
ATOM     11  C   UNL     1      50.596  15.630  20.442  0.00  0.00    +0.022 C 
ATOM     12  C   UNL     1      50.195  16.695  19.427  0.00  0.00    +0.026 C 
ATOM     13  C   UNL     1      49.239  16.164  18.374  0.00  0.00    -0.003 C 
ATOM     14  C   UNL     1      47.833  15.850  18.895  0.00  0.00    +0.007 C 
ATOM     15  C   UNL     1      49.023  17.258  17.316  0.00  0.00    -0.001 C 
ATOM     16  C   UNL     1      48.641  18.597  17.922  0.00  0.00    +0.175 C 
ATOM     19  C   UNL     1      49.539  19.097  19.054  0.00  0.00    +0.015 C 
ATOM     20  C   UNL     1      48.680  20.171  19.796  0.00  0.00    +0.003 C 
ATOM     21  C   UNL     1      50.746  19.839  18.513  0.00  0.00    -0.113 C 
ATOM     25  C   UNL     1      50.263  21.225  18.013  0.00  0.00    +0.012 C 
ATOM     26  C   UNL     1      51.824  20.119  19.560  0.00  0.00    +0.167 C 
ATOM     29  C   UNL     1      52.162  18.837  20.320  0.00  0.00    -0.005 C 
ATOM     30  C   UNL     1      50.905  18.420  21.072  0.00  0.00    +0.005 C 
ATOM     31  C   UNL     1      49.802  18.006  20.081  0.00  0.00    -0.007 C 
ATOM     35  C   UNL     1      49.853  14.912  17.728  0.00  0.00    -0.021 C 
ATOM     36  C   UNL     1      51.120  15.430  16.996  0.00  0.00    +0.020 C 
ATOM     37  C   UNL     1      48.968  14.363  16.612  0.00  0.00    +0.008 C 
ATOM     38  C   UNL     1      49.681  13.198  15.887  0.00  0.00    +0.021 C 
ATOM     39  C   UNL     1      49.913  12.106  16.898  0.00  0.00    -0.032 C 
ATOM     40  C   UNL     1      48.517  11.620  17.356  0.00  0.00    +0.013 C 
ENDROOT
BRANCH   3   2
ATOM      1  C   UNL     1      51.018  11.403  13.978  0.00  0.00    +0.067 C 
ATOM      2  C   UNL     1      51.533  10.944  15.317  0.00  0.00    -0.102 C 
ATOM     41  C   UNL     1      52.805  10.667  15.469  0.00  0.00    -0.010 C 
ENDBRANCH   3   2
BRANCH  21  22
ATOM     22  C   UNL     1      51.397  19.153  17.342  0.00  0.00    +0.530 C 
ATOM     23  O   UNL     1      52.228  18.282  17.531  0.00  0.00    -0.672 OA
ATOM     24  O   UNL     1      51.092  19.468  16.204  0.00  0.00    -0.706 OA
ENDBRANCH  21  22
BRANCH  16  17
ATOM     17  O   UNL     1      47.274  18.600  18.344  0.00  0.00    -0.570 OA
ATOM     18  H   UNL     1      46.695  18.041  17.808  0.00  0.00    +0.365 HD
ENDBRANCH  16  17
BRANCH  26  27
ATOM     27  O   UNL     1      53.001  20.606  18.907  0.00  0.00    -0.547 OA
ATOM     28  H   UNL     1      53.513  19.920  18.456  0.00  0.00    +0.356 HD
ENDBRANCH  26  27
BRANCH  31  32
ATOM     32  C   UNL     1      48.551  17.858  20.971  0.00  0.00    +0.171 C 
BRANCH  32  33
ATOM     33  O   UNL     1      48.940  17.852  22.346  0.00  0.00    -0.565 OA
ATOM     34  H   UNL     1      49.703  18.413  22.541  0.00  0.00    +0.360 HD
ENDBRANCH  32  33
ENDBRANCH  31  32
TORSDOF 6
ENDMDL
MODEL 9
REMARK VINA RESULT:      -5.2      3.488      7.325
REMARK  Name = ZINC95486172
REMARK  14 active torsions:
REMARK  status: ('A' for Active; 'I' for Inactive)
REMARK    1  A    between atoms: C1_1  and  C2_2
REMARK    2  A    between atoms: C2_2  and  C4_4
REMARK    3  A    between atoms: C7_8  and  C33_42
REMARK    4  A    between atoms: C8_9  and  C32_41
REMARK    5  A    between atoms: C11_12  and  C31_40
REMARK    6  A    between atoms: C12_13  and  C30_39
REMARK    7  A    between atoms: C16_18  and  C29_38
REMARK    8  A    between atoms: C18_20  and  O5_37
REMARK    9  A    between atoms: C19_22  and  C28_36
REMARK   10  A    between atoms: C20_23  and  C27_34
REMARK   11  A    between atoms: C23_26  and  O3_33
REMARK   12  A    between atoms: C24_28  and  C25_29
REMARK   13  A    between atoms: C24_28  and  C26_30
REMARK   14  A    between atoms: C27_34  and  O4_35
REMARK                            x       y       z     vdW  Elec       q    Type
REMARK                         _______ _______ _______ _____ _____    ______ ____
ROOT
ATOM      3  C   UNL     1      47.209  11.130  17.216  0.00  0.00    +0.014 C 
ATOM      4  C   UNL     1      48.089  10.967  15.951  0.00  0.00    +0.001 C 
ATOM      5  C   UNL     1      49.416  11.739  16.258  0.00  0.00    +0.011 C 
ATOM      6  C   UNL     1      48.862  12.880  17.150  0.00  0.00    -0.026 C 
ATOM      7  C   UNL     1      47.971  13.690  16.184  0.00  0.00    +0.016 C 
ATOM      8  C   UNL     1      49.862  13.779  17.835  0.00  0.00    -0.005 C 
ATOM      9  C   UNL     1      51.053  12.892  18.259  0.00  0.00    +0.006 C 
ATOM     10  C   UNL     1      50.496  14.789  16.859  0.00  0.00    -0.004 C 
ATOM     11  C   UNL     1      51.576  15.587  17.608  0.00  0.00    +0.022 C 
ATOM     12  C   UNL     1      50.936  16.360  18.756  0.00  0.00    +0.026 C 
ATOM     13  C   UNL     1      50.229  15.452  19.746  0.00  0.00    -0.003 C 
ATOM     14  C   UNL     1      51.167  14.585  20.592  0.00  0.00    +0.007 C 
ATOM     15  C   UNL     1      49.488  16.329  20.768  0.00  0.00    -0.001 C 
ATOM     16  C   UNL     1      50.378  17.394  21.385  0.00  0.00    +0.175 C 
ATOM     19  C   UNL     1      51.175  18.251  20.401  0.00  0.00    +0.015 C 
ATOM     20  C   UNL     1      52.322  18.877  21.258  0.00  0.00    +0.003 C 
ATOM     21  C   UNL     1      50.352  19.422  19.899  0.00  0.00    -0.113 C 
ATOM     25  C   UNL     1      50.263  20.462  21.045  0.00  0.00    +0.012 C 
ATOM     26  C   UNL     1      50.974  20.154  18.710  0.00  0.00    +0.167 C 
ATOM     29  C   UNL     1      51.368  19.151  17.626  0.00  0.00    -0.005 C 
ATOM     30  C   UNL     1      52.451  18.258  18.218  0.00  0.00    +0.005 C 
ATOM     31  C   UNL     1      51.870  17.395  19.353  0.00  0.00    -0.007 C 
ATOM     35  C   UNL     1      49.233  14.564  18.985  0.00  0.00    -0.021 C 
ATOM     36  C   UNL     1      48.180  15.553  18.418  0.00  0.00    +0.020 C 
ATOM     37  C   UNL     1      48.439  13.668  19.933  0.00  0.00    +0.008 C 
ATOM     38  C   UNL     1      47.348  12.899  19.155  0.00  0.00    +0.021 C 
ATOM     39  C   UNL     1      48.039  12.029  18.139  0.00  0.00    -0.032 C 
ATOM     40  C   UNL     1      48.890  11.008  18.931  0.00  0.00    +0.013 C 
ENDROOT
BRANCH   3   2
ATOM      1  C   UNL     1      45.160  12.567  17.901  0.00  0.00    +0.067 C 
ATOM      2  C   UNL     1      45.834  11.627  16.935  0.00  0.00    -0.102 C 
ATOM     41  C   UNL     1      45.209  11.247  15.847  0.00  0.00    -0.010 C 
ENDBRANCH   3   2
BRANCH  21  22
ATOM     22  C   UNL     1      48.939  19.050  19.534  0.00  0.00    +0.530 C 
ATOM     23  O   UNL     1      48.691  18.616  18.423  0.00  0.00    -0.672 OA
ATOM     24  O   UNL     1      48.044  19.184  20.351  0.00  0.00    -0.706 OA
ENDBRANCH  21  22
BRANCH  16  17
ATOM     17  O   UNL     1      51.256  16.828  22.363  0.00  0.00    -0.570 OA
ATOM     18  H   UNL     1      51.853  17.468  22.775  0.00  0.00    +0.365 HD
ENDBRANCH  16  17
BRANCH  26  27
ATOM     27  O   UNL     1      50.021  21.079  18.174  0.00  0.00    -0.547 OA
ATOM     28  H   UNL     1      49.281  20.658  17.716  0.00  0.00    +0.356 HD
ENDBRANCH  26  27
BRANCH  31  32
ATOM     32  C   UNL     1      53.117  16.752  19.994  0.00  0.00    +0.171 C 
BRANCH  32  33
ATOM     33  O   UNL     1      54.169  16.683  19.029  0.00  0.00    -0.565 OA
ATOM     34  H   UNL     1      54.969  17.160  19.285  0.00  0.00    +0.360 HD
ENDBRANCH  32  33
ENDBRANCH  31  32
TORSDOF 6
ENDMDL
