MODEL 1
REMARK VINA RESULT:      -5.9      0.000      0.000
REMARK  Name = ZINC95486175
REMARK  18 active torsions:
REMARK  status: ('A' for Active; 'I' for Inactive)
REMARK    1  A    between atoms: C1_1  and  C2_2
REMARK    2  A    between atoms: C5_5  and  C35_43
REMARK    3  A    between atoms: C7_7  and  C13_15
REMARK    4  A    between atoms: C8_8  and  O2_14
REMARK    5  A    between atoms: C10_10  and  O1_12
REMARK    6  A    between atoms: O1_12  and  C12_13
REMARK    7  A    between atoms: C15_17  and  C25_29
REMARK    8  A    between atoms: C18_20  and  C24_28
REMARK    9  A    between atoms: C20_22  and  O4_26
REMARK   10  A    between atoms: C22_24  and  O3_25
REMARK   11  A    between atoms: O4_26  and  C23_27
REMARK   12  A    between atoms: C26_30  and  O6_42
REMARK   13  A    between atoms: C28_32  and  O5_41
REMARK   14  A    between atoms: C32_36  and  C34_40
REMARK   15  A    between atoms: C36_44  and  O8_58
REMARK   16  A    between atoms: C38_46  and  O7_57
REMARK   17  A    between atoms: C42_50  and  C46_56
REMARK   18  A    between atoms: C44_53  and  C45_55
REMARK                            x       y       z     vdW  Elec       q    Type
REMARK                         _______ _______ _______ _____ _____    ______ ____
ROOT
ATOM     24  C   UNL     1      50.298  15.608  19.505  0.00  0.00    -0.090 A 
ATOM     25  C   UNL     1      50.032  15.235  18.181  0.00  0.00    +0.075 A 
ATOM     26  C   UNL     1      50.638  14.124  17.628  0.00  0.00    -0.083 A 
ATOM     44  C   UNL     1      51.537  13.353  18.407  0.00  0.00    +0.032 A 
ATOM     45  C   UNL     1      52.166  12.220  17.870  0.00  0.00    -0.047 A 
ATOM     46  C   UNL     1      53.027  11.492  18.635  0.00  0.00    -0.017 A 
ATOM     47  C   UNL     1      53.697  10.277  18.046  0.00  0.00    +0.094 C 
ATOM     48  C   UNL     1      53.299  11.855  19.951  0.00  0.00    -0.100 A 
ATOM     49  C   UNL     1      52.701  12.960  20.513  0.00  0.00    +0.172 A 
ATOM     52  C   UNL     1      51.805  13.731  19.744  0.00  0.00    -0.107 A 
ATOM     53  C   UNL     1      51.181  14.871  20.284  0.00  0.00    +0.200 A 
ENDROOT
BRANCH  26  27
ATOM     27  C   UNL     1      50.348  13.739  16.228  0.00  0.00    -0.054 A 
ATOM     28  C   UNL     1      51.274  14.022  15.219  0.00  0.00    +0.172 A 
ATOM     31  C   UNL     1      50.996  13.659  13.914  0.00  0.00    -0.014 A 
ATOM     32  C   UNL     1      49.806  13.017  13.613  0.00  0.00    +0.158 A 
ATOM     35  C   UNL     1      48.880  12.733  14.615  0.00  0.00    -0.176 A 
ATOM     36  C   UNL     1      47.604  12.029  14.235  0.00  0.00    +0.338 C 
ATOM     37  N   UNL     1      46.594  12.189  15.280  0.00  0.00    -0.503 N 
ATOM     38  H   UNL     1      46.326  13.160  15.336  0.00  0.00    +0.430 HD
ATOM     39  H   UNL     1      45.786  11.626  15.059  0.00  0.00    +0.434 HD
ATOM     40  C   UNL     1      47.156  11.757  16.569  0.00  0.00    +0.173 C 
ATOM     41  C   UNL     1      46.039  11.637  17.607  0.00  0.00    +0.096 C 
ATOM     42  C   UNL     1      48.174  12.801  17.030  0.00  0.00    +0.134 C 
ATOM     43  C   UNL     1      49.150  13.088  15.917  0.00  0.00    -0.041 A 
BRANCH  28  29
ATOM     29  O   UNL     1      52.440  14.650  15.521  0.00  0.00    -0.480 OA
ATOM     30  H   UNL     1      52.330  15.561  15.827  0.00  0.00    +0.402 HD
ENDBRANCH  28  29
BRANCH  32  33
ATOM     33  O   UNL     1      49.538  12.662  12.330  0.00  0.00    -0.492 OA
ATOM     34  H   UNL     1      49.320  11.726  12.218  0.00  0.00    +0.404 HD
ENDBRANCH  32  33
ENDBRANCH  26  27
BRANCH  24  23
ATOM      1  C   UNL     1      47.799  22.534  22.505  0.00  0.00    +0.095 C 
ATOM      2  C   UNL     1      48.477  21.321  21.923  0.00  0.00    -0.026 A 
ATOM      3  C   UNL     1      47.752  20.189  21.703  0.00  0.00    -0.021 A 
ATOM      4  C   UNL     1      48.372  19.054  21.160  0.00  0.00    +0.026 A 
ATOM      5  C   UNL     1      47.637  17.866  20.922  0.00  0.00    -0.036 A 
ATOM     22  C   UNL     1      48.272  16.763  20.386  0.00  0.00    +0.055 A 
ATOM     23  C   UNL     1      49.637  16.805  20.077  0.00  0.00    -0.095 A 
ATOM     56  C   UNL     1      50.378  17.959  20.303  0.00  0.00    +0.181 A 
ATOM     59  C   UNL     1      49.752  19.096  20.846  0.00  0.00    -0.101 A 
ATOM     60  C   UNL     1      50.479  20.280  21.085  0.00  0.00    +0.158 A 
ATOM     63  C   UNL     1      49.833  21.376  21.614  0.00  0.00    -0.093 A 
BRANCH   5   6
ATOM      6  C   UNL     1      46.193  17.808  21.245  0.00  0.00    -0.086 A 
ATOM      7  C   UNL     1      45.696  16.760  22.023  0.00  0.00    +0.135 A 
ATOM     10  C   UNL     1      44.345  16.712  22.320  0.00  0.00    -0.039 A 
ATOM     11  C   UNL     1      43.500  17.700  21.844  0.00  0.00    +0.131 A 
ATOM     14  C   UNL     1      43.993  18.747  21.065  0.00  0.00    -0.101 A 
ATOM     15  C   UNL     1      43.009  19.780  20.577  0.00  0.00    +0.036 C 
ATOM     16  C   UNL     1      42.227  19.210  19.392  0.00  0.00    +0.035 C 
ATOM     17  C   UNL     1      43.738  21.056  20.153  0.00  0.00    +0.024 C 
ATOM     18  C   UNL     1      44.854  20.666  19.178  0.00  0.00    -0.017 C 
ATOM     19  C   UNL     1      45.448  21.925  18.543  0.00  0.00    +0.021 C 
ATOM     20  C   UNL     1      45.937  19.923  19.959  0.00  0.00    +0.082 C 
ATOM     21  C   UNL     1      45.334  18.809  20.774  0.00  0.00    -0.023 A 
BRANCH   7   8
ATOM      8  O   UNL     1      46.532  15.794  22.483  0.00  0.00    -0.486 OA
ATOM      9  H   UNL     1      46.462  15.634  23.435  0.00  0.00    +0.385 HD
ENDBRANCH   7   8
BRANCH  11  12
ATOM     12  O   UNL     1      42.173  17.648  22.137  0.00  0.00    -0.491 OA
ATOM     13  H   UNL     1      41.607  18.063  21.471  0.00  0.00    +0.392 HD
ENDBRANCH  11  12
ENDBRANCH   5   6
BRANCH  56  57
ATOM     57  O   UNL     1      51.701  17.990  20.000  0.00  0.00    -0.463 OA
ATOM     58  H   UNL     1      52.078  17.122  19.796  0.00  0.00    +0.381 HD
ENDBRANCH  56  57
BRANCH  60  61
ATOM     61  O   UNL     1      51.803  20.342  20.791  0.00  0.00    -0.295 OA
ATOM     62  C   UNL     1      52.208  21.308  19.819  0.00  0.00    +0.240 C 
ENDBRANCH  60  61
ENDBRANCH  24  23
BRANCH  49  50
ATOM     50  O   UNL     1      52.972  13.305  21.799  0.00  0.00    -0.291 OA
ATOM     51  C   UNL     1      54.343  13.294  22.198  0.00  0.00    +0.246 C 
ENDBRANCH  49  50
BRANCH  53  54
ATOM     54  O   UNL     1      51.436  15.245  21.564  0.00  0.00    -0.463 OA
ATOM     55  H   UNL     1      51.647  16.183  21.666  0.00  0.00    +0.393 HD
ENDBRANCH  53  54
TORSDOF 11
ENDMDL
MODEL 2
REMARK VINA RESULT:      -5.3      1.330      9.043
REMARK  Name = ZINC95486175
REMARK  18 active torsions:
REMARK  status: ('A' for Active; 'I' for Inactive)
REMARK    1  A    between atoms: C1_1  and  C2_2
REMARK    2  A    between atoms: C5_5  and  C35_43
REMARK    3  A    between atoms: C7_7  and  C13_15
REMARK    4  A    between atoms: C8_8  and  O2_14
REMARK    5  A    between atoms: C10_10  and  O1_12
REMARK    6  A    between atoms: O1_12  and  C12_13
REMARK    7  A    between atoms: C15_17  and  C25_29
REMARK    8  A    between atoms: C18_20  and  C24_28
REMARK    9  A    between atoms: C20_22  and  O4_26
REMARK   10  A    between atoms: C22_24  and  O3_25
REMARK   11  A    between atoms: O4_26  and  C23_27
REMARK   12  A    between atoms: C26_30  and  O6_42
REMARK   13  A    between atoms: C28_32  and  O5_41
REMARK   14  A    between atoms: C32_36  and  C34_40
REMARK   15  A    between atoms: C36_44  and  O8_58
REMARK   16  A    between atoms: C38_46  and  O7_57
REMARK   17  A    between atoms: C42_50  and  C46_56
REMARK   18  A    between atoms: C44_53  and  C45_55
REMARK                            x       y       z     vdW  Elec       q    Type
REMARK                         _______ _______ _______ _____ _____    ______ ____
ROOT
ATOM     24  C   UNL     1      49.851  16.684  20.041  0.00  0.00    -0.090 A 
ATOM     25  C   UNL     1      48.485  16.603  20.338  0.00  0.00    +0.075 A 
ATOM     26  C   UNL     1      47.817  17.685  20.877  0.00  0.00    -0.083 A 
ATOM     44  C   UNL     1      48.520  18.889  21.132  0.00  0.00    +0.032 A 
ATOM     45  C   UNL     1      47.867  20.003  21.679  0.00  0.00    -0.047 A 
ATOM     46  C   UNL     1      48.560  21.152  21.916  0.00  0.00    -0.017 A 
ATOM     47  C   UNL     1      47.847  22.342  22.505  0.00  0.00    +0.094 C 
ATOM     48  C   UNL     1      49.918  21.242  21.624  0.00  0.00    -0.100 A 
ATOM     49  C   UNL     1      50.594  20.170  21.087  0.00  0.00    +0.172 A 
ATOM     52  C   UNL     1      49.900  18.970  20.831  0.00  0.00    -0.107 A 
ATOM     53  C   UNL     1      50.561  17.852  20.288  0.00  0.00    +0.200 A 
ENDROOT
BRANCH  26  27
ATOM     27  C   UNL     1      46.372  17.588  21.187  0.00  0.00    -0.054 A 
ATOM     28  C   UNL     1      45.900  16.552  22.000  0.00  0.00    +0.172 A 
ATOM     31  C   UNL     1      44.549  16.469  22.285  0.00  0.00    -0.014 A 
ATOM     32  C   UNL     1      43.673  17.409  21.768  0.00  0.00    +0.158 A 
ATOM     35  C   UNL     1      44.140  18.443  20.958  0.00  0.00    -0.176 A 
ATOM     36  C   UNL     1      43.147  19.442  20.425  0.00  0.00    +0.338 C 
ATOM     37  N   UNL     1      43.706  20.173  19.290  0.00  0.00    -0.503 N 
ATOM     38  H   UNL     1      43.843  19.536  18.520  0.00  0.00    +0.430 HD
ATOM     39  H   UNL     1      43.071  20.908  19.013  0.00  0.00    +0.434 HD
ATOM     40  C   UNL     1      44.997  20.761  19.679  0.00  0.00    +0.173 C 
ATOM     41  C   UNL     1      45.452  21.763  18.617  0.00  0.00    +0.096 C 
ATOM     42  C   UNL     1      46.027  19.636  19.798  0.00  0.00    +0.134 C 
ATOM     43  C   UNL     1      45.482  18.535  20.671  0.00  0.00    -0.041 A 
BRANCH  28  29
ATOM     29  O   UNL     1      46.764  15.634  22.505  0.00  0.00    -0.480 OA
ATOM     30  H   UNL     1      46.623  14.737  22.175  0.00  0.00    +0.402 HD
ENDBRANCH  28  29
BRANCH  32  33
ATOM     33  O   UNL     1      42.348  17.323  22.052  0.00  0.00    -0.492 OA
ATOM     34  H   UNL     1      42.071  16.455  22.376  0.00  0.00    +0.404 HD
ENDBRANCH  32  33
ENDBRANCH  26  27
BRANCH  24  23
ATOM      1  C   UNL     1      54.088  10.277  17.987  0.00  0.00    +0.095 C 
ATOM      2  C   UNL     1      53.383  11.470  18.580  0.00  0.00    -0.026 A 
ATOM      3  C   UNL     1      52.515  12.186  17.812  0.00  0.00    -0.021 A 
ATOM      4  C   UNL     1      51.853  13.297  18.354  0.00  0.00    +0.026 A 
ATOM      5  C   UNL     1      50.945  14.056  17.574  0.00  0.00    -0.036 A 
ATOM     22  C   UNL     1      50.306  15.146  18.132  0.00  0.00    +0.055 A 
ATOM     23  C   UNL     1      50.547  15.510  19.463  0.00  0.00    -0.095 A 
ATOM     56  C   UNL     1      51.433  14.781  20.247  0.00  0.00    +0.181 A 
ATOM     59  C   UNL     1      52.095  13.666  19.700  0.00  0.00    -0.101 A 
ATOM     60  C   UNL     1      52.999  12.907  20.472  0.00  0.00    +0.158 A 
ATOM     63  C   UNL     1      53.625  11.819  19.905  0.00  0.00    -0.093 A 
BRANCH   5   6
ATOM      6  C   UNL     1      50.683  13.681  16.166  0.00  0.00    -0.086 A 
ATOM      7  C   UNL     1      51.590  14.046  15.168  0.00  0.00    +0.135 A 
ATOM     10  C   UNL     1      51.338  13.693  13.854  0.00  0.00    -0.039 A 
ATOM     11  C   UNL     1      50.190  12.985  13.540  0.00  0.00    +0.131 A 
ATOM     14  C   UNL     1      49.281  12.620  14.533  0.00  0.00    -0.101 A 
ATOM     15  C   UNL     1      48.051  11.858  14.111  0.00  0.00    +0.036 C 
ATOM     16  C   UNL     1      47.046  12.828  13.487  0.00  0.00    +0.035 C 
ATOM     17  C   UNL     1      47.417  11.155  15.313  0.00  0.00    +0.024 C 
ATOM     18  C   UNL     1      47.226  12.192  16.425  0.00  0.00    -0.017 C 
ATOM     19  C   UNL     1      46.377  11.594  17.549  0.00  0.00    +0.021 C 
ATOM     20  C   UNL     1      48.602  12.577  16.967  0.00  0.00    +0.082 C 
ATOM     21  C   UNL     1      49.528  12.957  15.842  0.00  0.00    -0.023 A 
BRANCH   7   8
ATOM      8  O   UNL     1      52.711  14.743  15.485  0.00  0.00    -0.486 OA
ATOM      9  H   UNL     1      53.149  14.437  16.292  0.00  0.00    +0.385 HD
ENDBRANCH   7   8
BRANCH  11  12
ATOM     12  O   UNL     1      49.945  12.642  12.247  0.00  0.00    -0.491 OA
ATOM     13  H   UNL     1      49.727  13.392  11.676  0.00  0.00    +0.392 HD
ENDBRANCH  11  12
ENDBRANCH   5   6
BRANCH  56  57
ATOM     57  O   UNL     1      51.660  15.142  21.535  0.00  0.00    -0.463 OA
ATOM     58  H   UNL     1      50.968  14.861  22.150  0.00  0.00    +0.381 HD
ENDBRANCH  56  57
BRANCH  60  61
ATOM     61  O   UNL     1      53.245  13.244  21.764  0.00  0.00    -0.295 OA
ATOM     62  C   UNL     1      54.614  13.300  22.170  0.00  0.00    +0.240 C 
ENDBRANCH  60  61
ENDBRANCH  24  23
BRANCH  49  50
ATOM     50  O   UNL     1      51.919  20.269  20.804  0.00  0.00    -0.291 OA
ATOM     51  C   UNL     1      52.323  21.343  19.953  0.00  0.00    +0.246 C 
ENDBRANCH  49  50
BRANCH  53  54
ATOM     54  O   UNL     1      51.886  17.918  20.000  0.00  0.00    -0.463 OA
ATOM     55  H   UNL     1      52.304  17.055  19.871  0.00  0.00    +0.393 HD
ENDBRANCH  53  54
TORSDOF 11
ENDMDL
MODEL 3
REMARK VINA RESULT:      -5.1      2.908      9.586
REMARK  Name = ZINC95486175
REMARK  18 active torsions:
REMARK  status: ('A' for Active; 'I' for Inactive)
REMARK    1  A    between atoms: C1_1  and  C2_2
REMARK    2  A    between atoms: C5_5  and  C35_43
REMARK    3  A    between atoms: C7_7  and  C13_15
REMARK    4  A    between atoms: C8_8  and  O2_14
REMARK    5  A    between atoms: C10_10  and  O1_12
REMARK    6  A    between atoms: O1_12  and  C12_13
REMARK    7  A    between atoms: C15_17  and  C25_29
REMARK    8  A    between atoms: C18_20  and  C24_28
REMARK    9  A    between atoms: C20_22  and  O4_26
REMARK   10  A    between atoms: C22_24  and  O3_25
REMARK   11  A    between atoms: O4_26  and  C23_27
REMARK   12  A    between atoms: C26_30  and  O6_42
REMARK   13  A    between atoms: C28_32  and  O5_41
REMARK   14  A    between atoms: C32_36  and  C34_40
REMARK   15  A    between atoms: C36_44  and  O8_58
REMARK   16  A    between atoms: C38_46  and  O7_57
REMARK   17  A    between atoms: C42_50  and  C46_56
REMARK   18  A    between atoms: C44_53  and  C45_55
REMARK                            x       y       z     vdW  Elec       q    Type
REMARK                         _______ _______ _______ _____ _____    ______ ____
ROOT
ATOM     24  C   UNL     1      47.749  14.871  18.788  0.00  0.00    -0.090 A 
ATOM     25  C   UNL     1      47.697  16.265  18.661  0.00  0.00    +0.075 A 
ATOM     26  C   UNL     1      46.757  17.000  19.357  0.00  0.00    -0.083 A 
ATOM     44  C   UNL     1      45.836  16.339  20.207  0.00  0.00    +0.032 A 
ATOM     45  C   UNL     1      44.872  17.061  20.925  0.00  0.00    -0.047 A 
ATOM     46  C   UNL     1      43.996  16.406  21.738  0.00  0.00    -0.017 A 
ATOM     47  C   UNL     1      42.963  17.194  22.503  0.00  0.00    +0.094 C 
ATOM     48  C   UNL     1      44.039  15.021  21.871  0.00  0.00    -0.100 A 
ATOM     49  C   UNL     1      44.971  14.279  21.183  0.00  0.00    +0.172 A 
ATOM     52  C   UNL     1      45.890  14.930  20.335  0.00  0.00    -0.107 A 
ATOM     53  C   UNL     1      46.852  14.201  19.612  0.00  0.00    +0.200 A 
ENDROOT
BRANCH  26  27
ATOM     27  C   UNL     1      46.713  18.473  19.215  0.00  0.00    -0.054 A 
ATOM     28  C   UNL     1      45.759  19.066  18.381  0.00  0.00    +0.172 A 
ATOM     31  C   UNL     1      45.723  20.443  18.254  0.00  0.00    -0.014 A 
ATOM     32  C   UNL     1      46.628  21.226  18.953  0.00  0.00    +0.158 A 
ATOM     35  C   UNL     1      47.580  20.639  19.784  0.00  0.00    -0.176 A 
ATOM     36  C   UNL     1      48.537  21.535  20.524  0.00  0.00    +0.338 C 
ATOM     37  N   UNL     1      49.699  20.780  20.991  0.00  0.00    -0.503 N 
ATOM     38  H   UNL     1      50.231  20.465  20.193  0.00  0.00    +0.430 HD
ATOM     39  H   UNL     1      50.276  21.369  21.572  0.00  0.00    +0.434 HD
ATOM     40  C   UNL     1      49.242  19.618  21.769  0.00  0.00    +0.173 C 
ATOM     41  C   UNL     1      50.426  18.990  22.505  0.00  0.00    +0.096 C 
ATOM     42  C   UNL     1      48.636  18.596  20.806  0.00  0.00    +0.134 C 
ATOM     43  C   UNL     1      47.621  19.270  19.918  0.00  0.00    -0.041 A 
BRANCH  28  29
ATOM     29  O   UNL     1      44.873  18.293  17.700  0.00  0.00    -0.480 OA
ATOM     30  H   UNL     1      43.988  18.676  17.633  0.00  0.00    +0.402 HD
ENDBRANCH  28  29
BRANCH  32  33
ATOM     33  O   UNL     1      46.588  22.578  18.825  0.00  0.00    -0.492 OA
ATOM     34  H   UNL     1      47.441  23.012  18.967  0.00  0.00    +0.404 HD
ENDBRANCH  32  33
ENDBRANCH  26  27
BRANCH  24  23
ATOM      1  C   UNL     1      52.446  10.778  13.847  0.00  0.00    +0.095 C 
ATOM      2  C   UNL     1      51.407  11.559  14.611  0.00  0.00    -0.026 A 
ATOM      3  C   UNL     1      51.655  11.922  15.901  0.00  0.00    -0.021 A 
ATOM      4  C   UNL     1      50.697  12.650  16.620  0.00  0.00    +0.026 A 
ATOM      5  C   UNL     1      50.935  13.038  17.963  0.00  0.00    -0.036 A 
ATOM     22  C   UNL     1      49.974  13.755  18.649  0.00  0.00    +0.055 A 
ATOM     23  C   UNL     1      48.766  14.102  18.032  0.00  0.00    -0.095 A 
ATOM     56  C   UNL     1      48.511  13.732  16.717  0.00  0.00    +0.181 A 
ATOM     59  C   UNL     1      49.476  13.002  15.997  0.00  0.00    -0.101 A 
ATOM     60  C   UNL     1      49.244  12.614  14.662  0.00  0.00    +0.158 A 
ATOM     63  C   UNL     1      50.212  11.904  13.986  0.00  0.00    -0.093 A 
BRANCH   5   6
ATOM      6  C   UNL     1      52.208  12.677  18.626  0.00  0.00    -0.086 A 
ATOM      7  C   UNL     1      52.529  11.333  18.831  0.00  0.00    +0.135 A 
ATOM     10  C   UNL     1      53.721  11.002  19.453  0.00  0.00    -0.039 A 
ATOM     11  C   UNL     1      54.581  12.005  19.867  0.00  0.00    +0.131 A 
ATOM     14  C   UNL     1      54.264  13.348  19.666  0.00  0.00    -0.101 A 
ATOM     15  C   UNL     1      55.248  14.381  20.152  0.00  0.00    +0.036 C 
ATOM     16  C   UNL     1      55.112  14.531  21.669  0.00  0.00    +0.035 C 
ATOM     17  C   UNL     1      54.993  15.727  19.471  0.00  0.00    +0.024 C 
ATOM     18  C   UNL     1      53.509  16.071  19.637  0.00  0.00    -0.017 C 
ATOM     19  C   UNL     1      53.259  17.512  19.190  0.00  0.00    +0.021 C 
ATOM     20  C   UNL     1      52.693  15.114  18.770  0.00  0.00    +0.082 C 
ATOM     21  C   UNL     1      53.088  13.686  19.040  0.00  0.00    -0.023 A 
BRANCH   7   8
ATOM      8  O   UNL     1      51.677  10.357  18.424  0.00  0.00    -0.486 OA
ATOM      9  H   UNL     1      52.062   9.470  18.433  0.00  0.00    +0.385 HD
ENDBRANCH   7   8
BRANCH  11  12
ATOM     12  O   UNL     1      55.750  11.676  20.479  0.00  0.00    -0.491 OA
ATOM     13  H   UNL     1      56.535  12.052  20.056  0.00  0.00    +0.392 HD
ENDBRANCH  11  12
ENDBRANCH   5   6
BRANCH  56  57
ATOM     57  O   UNL     1      47.336  14.073  16.128  0.00  0.00    -0.463 OA
ATOM     58  H   UNL     1      47.021  13.429  15.479  0.00  0.00    +0.381 HD
ENDBRANCH  56  57
BRANCH  60  61
ATOM     61  O   UNL     1      48.080  12.941  14.045  0.00  0.00    -0.295 OA
ATOM     62  C   UNL     1      48.121  13.109  12.627  0.00  0.00    +0.240 C 
ENDBRANCH  60  61
ENDBRANCH  24  23
BRANCH  49  50
ATOM     50  O   UNL     1      45.006  12.927  21.320  0.00  0.00    -0.291 OA
ATOM     51  C   UNL     1      45.614  12.411  22.505  0.00  0.00    +0.246 C 
ENDBRANCH  49  50
BRANCH  53  54
ATOM     54  O   UNL     1      46.909  12.850  19.723  0.00  0.00    -0.463 OA
ATOM     55  H   UNL     1      46.050  12.412  19.643  0.00  0.00    +0.393 HD
ENDBRANCH  53  54
TORSDOF 11
ENDMDL
MODEL 4
REMARK VINA RESULT:      -4.6      1.320      2.157
REMARK  Name = ZINC95486175
REMARK  18 active torsions:
REMARK  status: ('A' for Active; 'I' for Inactive)
REMARK    1  A    between atoms: C1_1  and  C2_2
REMARK    2  A    between atoms: C5_5  and  C35_43
REMARK    3  A    between atoms: C7_7  and  C13_15
REMARK    4  A    between atoms: C8_8  and  O2_14
REMARK    5  A    between atoms: C10_10  and  O1_12
REMARK    6  A    between atoms: O1_12  and  C12_13
REMARK    7  A    between atoms: C15_17  and  C25_29
REMARK    8  A    between atoms: C18_20  and  C24_28
REMARK    9  A    between atoms: C20_22  and  O4_26
REMARK   10  A    between atoms: C22_24  and  O3_25
REMARK   11  A    between atoms: O4_26  and  C23_27
REMARK   12  A    between atoms: C26_30  and  O6_42
REMARK   13  A    between atoms: C28_32  and  O5_41
REMARK   14  A    between atoms: C32_36  and  C34_40
REMARK   15  A    between atoms: C36_44  and  O8_58
REMARK   16  A    between atoms: C38_46  and  O7_57
REMARK   17  A    between atoms: C42_50  and  C46_56
REMARK   18  A    between atoms: C44_53  and  C45_55
REMARK                            x       y       z     vdW  Elec       q    Type
REMARK                         _______ _______ _______ _____ _____    ______ ____
ROOT
ATOM     24  C   UNL     1      50.177  15.496  19.815  0.00  0.00    -0.090 A 
ATOM     25  C   UNL     1      49.589  14.746  18.789  0.00  0.00    +0.075 A 
ATOM     26  C   UNL     1      50.194  13.595  18.323  0.00  0.00    -0.083 A 
ATOM     44  C   UNL     1      51.423  13.169  18.888  0.00  0.00    +0.032 A 
ATOM     45  C   UNL     1      52.059  12.005  18.433  0.00  0.00    -0.047 A 
ATOM     46  C   UNL     1      53.239  11.612  18.990  0.00  0.00    -0.017 A 
ATOM     47  C   UNL     1      53.913  10.359  18.492  0.00  0.00    +0.094 C 
ATOM     48  C   UNL     1      53.832  12.350  20.010  0.00  0.00    -0.100 A 
ATOM     49  C   UNL     1      53.237  13.498  20.482  0.00  0.00    +0.172 A 
ATOM     52  C   UNL     1      52.016  13.928  19.924  0.00  0.00    -0.107 A 
ATOM     53  C   UNL     1      51.384  15.100  20.379  0.00  0.00    +0.200 A 
ENDROOT
BRANCH  26  27
ATOM     27  C   UNL     1      49.563  12.810  17.238  0.00  0.00    -0.054 A 
ATOM     28  C   UNL     1      48.422  12.045  17.502  0.00  0.00    +0.172 A 
ATOM     31  C   UNL     1      47.838  11.315  16.483  0.00  0.00    -0.014 A 
ATOM     32  C   UNL     1      48.382  11.346  15.210  0.00  0.00    +0.158 A 
ATOM     35  C   UNL     1      49.518  12.107  14.942  0.00  0.00    -0.176 A 
ATOM     36  C   UNL     1      50.066  12.110  13.540  0.00  0.00    +0.338 C 
ATOM     37  N   UNL     1      51.449  12.586  13.525  0.00  0.00    -0.503 N 
ATOM     38  H   UNL     1      52.033  11.922  14.011  0.00  0.00    +0.430 HD
ATOM     39  H   UNL     1      51.765  12.682  12.571  0.00  0.00    +0.434 HD
ATOM     40  C   UNL     1      51.520  13.891  14.199  0.00  0.00    +0.173 C 
ATOM     41  C   UNL     1      52.882  14.536  13.938  0.00  0.00    +0.096 C 
ATOM     42  C   UNL     1      51.335  13.673  15.702  0.00  0.00    +0.134 C 
ATOM     43  C   UNL     1      50.104  12.838  15.949  0.00  0.00    -0.041 A 
BRANCH  28  29
ATOM     29  O   UNL     1      47.893  12.020  18.753  0.00  0.00    -0.480 OA
ATOM     30  H   UNL     1      48.435  12.462  19.419  0.00  0.00    +0.402 HD
ENDBRANCH  28  29
BRANCH  32  33
ATOM     33  O   UNL     1      47.803  10.627  14.212  0.00  0.00    -0.492 OA
ATOM     34  H   UNL     1      48.415  10.045  13.741  0.00  0.00    +0.404 HD
ENDBRANCH  32  33
ENDBRANCH  26  27
BRANCH  24  23
ATOM      1  C   UNL     1      47.651  22.596  22.350  0.00  0.00    +0.095 C 
ATOM      2  C   UNL     1      48.336  21.347  21.858  0.00  0.00    -0.026 A 
ATOM      3  C   UNL     1      47.606  20.211  21.673  0.00  0.00    -0.021 A 
ATOM      4  C   UNL     1      48.232  19.043  21.214  0.00  0.00    +0.026 A 
ATOM      5  C   UNL     1      47.493  17.851  21.014  0.00  0.00    -0.036 A 
ATOM     22  C   UNL     1      48.134  16.715  20.561  0.00  0.00    +0.055 A 
ATOM     23  C   UNL     1      49.510  16.728  20.299  0.00  0.00    -0.095 A 
ATOM     56  C   UNL     1      50.255  17.886  20.488  0.00  0.00    +0.181 A 
ATOM     59  C   UNL     1      49.623  19.056  20.948  0.00  0.00    -0.101 A 
ATOM     60  C   UNL     1      50.354  20.245  21.148  0.00  0.00    +0.158 A 
ATOM     63  C   UNL     1      49.702  21.373  21.594  0.00  0.00    -0.093 A 
BRANCH   5   6
ATOM      6  C   UNL     1      46.038  17.824  21.289  0.00  0.00    -0.086 A 
ATOM      7  C   UNL     1      45.490  16.777  22.033  0.00  0.00    +0.135 A 
ATOM     10  C   UNL     1      44.129  16.757  22.285  0.00  0.00    -0.039 A 
ATOM     11  C   UNL     1      43.325  17.773  21.797  0.00  0.00    +0.131 A 
ATOM     14  C   UNL     1      43.868  18.819  21.052  0.00  0.00    -0.101 A 
ATOM     15  C   UNL     1      42.926  19.882  20.548  0.00  0.00    +0.036 C 
ATOM     16  C   UNL     1      42.170  19.350  19.329  0.00  0.00    +0.035 C 
ATOM     17  C   UNL     1      43.699  21.147  20.168  0.00  0.00    +0.024 C 
ATOM     18  C   UNL     1      44.838  20.745  19.225  0.00  0.00    -0.017 C 
ATOM     19  C   UNL     1      45.482  21.997  18.629  0.00  0.00    +0.021 C 
ATOM     20  C   UNL     1      45.876  19.963  20.028  0.00  0.00    +0.082 C 
ATOM     21  C   UNL     1      45.220  18.853  20.805  0.00  0.00    -0.023 A 
BRANCH   7   8
ATOM      8  O   UNL     1      46.287  15.784  22.505  0.00  0.00    -0.486 OA
ATOM      9  H   UNL     1      45.944  14.894  22.343  0.00  0.00    +0.385 HD
ENDBRANCH   7   8
BRANCH  11  12
ATOM     12  O   UNL     1      41.988  17.749  22.045  0.00  0.00    -0.491 OA
ATOM     13  H   UNL     1      41.658  18.538  22.497  0.00  0.00    +0.392 HD
ENDBRANCH  11  12
ENDBRANCH   5   6
BRANCH  56  57
ATOM     57  O   UNL     1      51.588  17.888  20.231  0.00  0.00    -0.463 OA
ATOM     58  H   UNL     1      51.894  18.669  19.749  0.00  0.00    +0.381 HD
ENDBRANCH  56  57
BRANCH  60  61
ATOM     61  O   UNL     1      51.688  20.278  20.899  0.00  0.00    -0.295 OA
ATOM     62  C   UNL     1      52.417  21.393  21.417  0.00  0.00    +0.240 C 
ENDBRANCH  60  61
ENDBRANCH  24  23
BRANCH  49  50
ATOM     50  O   UNL     1      53.823  14.212  21.479  0.00  0.00    -0.291 OA
ATOM     51  C   UNL     1      55.251  14.219  21.518  0.00  0.00    +0.246 C 
ENDBRANCH  49  50
BRANCH  53  54
ATOM     54  O   UNL     1      51.947  15.838  21.369  0.00  0.00    -0.463 OA
ATOM     55  H   UNL     1      51.368  16.525  21.727  0.00  0.00    +0.393 HD
ENDBRANCH  53  54
TORSDOF 11
ENDMDL
MODEL 5
REMARK VINA RESULT:      -4.4      1.712      8.710
REMARK  Name = ZINC95486175
REMARK  18 active torsions:
REMARK  status: ('A' for Active; 'I' for Inactive)
REMARK    1  A    between atoms: C1_1  and  C2_2
REMARK    2  A    between atoms: C5_5  and  C35_43
REMARK    3  A    between atoms: C7_7  and  C13_15
REMARK    4  A    between atoms: C8_8  and  O2_14
REMARK    5  A    between atoms: C10_10  and  O1_12
REMARK    6  A    between atoms: O1_12  and  C12_13
REMARK    7  A    between atoms: C15_17  and  C25_29
REMARK    8  A    between atoms: C18_20  and  C24_28
REMARK    9  A    between atoms: C20_22  and  O4_26
REMARK   10  A    between atoms: C22_24  and  O3_25
REMARK   11  A    between atoms: O4_26  and  C23_27
REMARK   12  A    between atoms: C26_30  and  O6_42
REMARK   13  A    between atoms: C28_32  and  O5_41
REMARK   14  A    between atoms: C32_36  and  C34_40
REMARK   15  A    between atoms: C36_44  and  O8_58
REMARK   16  A    between atoms: C38_46  and  O7_57
REMARK   17  A    between atoms: C42_50  and  C46_56
REMARK   18  A    between atoms: C44_53  and  C45_55
REMARK                            x       y       z     vdW  Elec       q    Type
REMARK                         _______ _______ _______ _____ _____    ______ ____
ROOT
ATOM     24  C   UNL     1      49.876  17.453  20.071  0.00  0.00    -0.090 A 
ATOM     25  C   UNL     1      48.518  17.647  19.789  0.00  0.00    +0.075 A 
ATOM     26  C   UNL     1      47.870  18.794  20.204  0.00  0.00    -0.083 A 
ATOM     44  C   UNL     1      48.586  19.785  20.922  0.00  0.00    +0.032 A 
ATOM     45  C   UNL     1      47.952  20.958  21.355  0.00  0.00    -0.047 A 
ATOM     46  C   UNL     1      48.658  21.899  22.045  0.00  0.00    -0.017 A 
ATOM     47  C   UNL     1      47.966  23.156  22.505  0.00  0.00    +0.094 C 
ATOM     48  C   UNL     1      50.008  21.715  22.330  0.00  0.00    -0.100 A 
ATOM     49  C   UNL     1      50.664  20.576  21.922  0.00  0.00    +0.172 A 
ATOM     52  C   UNL     1      49.958  19.587  21.207  0.00  0.00    -0.107 A 
ATOM     53  C   UNL     1      50.596  18.408  20.780  0.00  0.00    +0.200 A 
ENDROOT
BRANCH  26  27
ATOM     27  C   UNL     1      46.434  18.989  19.899  0.00  0.00    -0.054 A 
ATOM     28  C   UNL     1      46.031  20.049  19.080  0.00  0.00    +0.172 A 
ATOM     31  C   UNL     1      44.688  20.223  18.799  0.00  0.00    -0.014 A 
ATOM     32  C   UNL     1      43.752  19.349  19.327  0.00  0.00    +0.158 A 
ATOM     35  C   UNL     1      44.149  18.291  20.143  0.00  0.00    -0.176 A 
ATOM     36  C   UNL     1      43.092  17.367  20.687  0.00  0.00    +0.338 C 
ATOM     37  N   UNL     1      43.604  16.607  21.826  0.00  0.00    -0.503 N 
ATOM     38  H   UNL     1      43.789  17.239  22.590  0.00  0.00    +0.430 HD
ATOM     39  H   UNL     1      42.922  15.920  22.110  0.00  0.00    +0.434 HD
ATOM     40  C   UNL     1      44.850  15.929  21.436  0.00  0.00    +0.173 C 
ATOM     41  C   UNL     1      45.239  14.905  22.503  0.00  0.00    +0.096 C 
ATOM     42  C   UNL     1      45.955  16.979  21.305  0.00  0.00    +0.134 C 
ATOM     43  C   UNL     1      45.484  18.109  20.425  0.00  0.00    -0.041 A 
BRANCH  28  29
ATOM     29  O   UNL     1      46.955  20.901  18.564  0.00  0.00    -0.480 OA
ATOM     30  H   UNL     1      46.583  21.726  18.225  0.00  0.00    +0.402 HD
ENDBRANCH  28  29
BRANCH  32  33
ATOM     33  O   UNL     1      42.434  19.524  19.048  0.00  0.00    -0.492 OA
ATOM     34  H   UNL     1      41.957  18.702  18.870  0.00  0.00    +0.404 HD
ENDBRANCH  32  33
ENDBRANCH  26  27
BRANCH  24  23
ATOM      1  C   UNL     1      53.924  10.745  18.713  0.00  0.00    +0.095 C 
ATOM      2  C   UNL     1      53.241  12.004  19.182  0.00  0.00    -0.026 A 
ATOM      3  C   UNL     1      52.458  12.705  18.314  0.00  0.00    -0.021 A 
ATOM      4  C   UNL     1      51.817  13.877  18.740  0.00  0.00    +0.026 A 
ATOM      5  C   UNL     1      50.998  14.622  17.854  0.00  0.00    -0.036 A 
ATOM     22  C   UNL     1      50.378  15.773  18.299  0.00  0.00    +0.055 A 
ATOM     23  C   UNL     1      50.551  16.214  19.617  0.00  0.00    -0.095 A 
ATOM     56  C   UNL     1      51.349  15.500  20.502  0.00  0.00    +0.181 A 
ATOM     59  C   UNL     1      51.991  14.324  20.072  0.00  0.00    -0.101 A 
ATOM     60  C   UNL     1      52.806  13.580  20.949  0.00  0.00    +0.158 A 
ATOM     63  C   UNL     1      53.415  12.430  20.495  0.00  0.00    -0.093 A 
BRANCH   5   6
ATOM      6  C   UNL     1      50.807  14.166  16.459  0.00  0.00    -0.086 A 
ATOM      7  C   UNL     1      51.632  14.663  15.446  0.00  0.00    +0.135 A 
ATOM     10  C   UNL     1      51.448  14.233  14.143  0.00  0.00    -0.039 A 
ATOM     11  C   UNL     1      50.448  13.319  13.855  0.00  0.00    +0.131 A 
ATOM     14  C   UNL     1      49.622  12.822  14.864  0.00  0.00    -0.101 A 
ATOM     15  C   UNL     1      48.552  11.836  14.469  0.00  0.00    +0.036 C 
ATOM     16  C   UNL     1      47.386  12.588  13.825  0.00  0.00    +0.035 C 
ATOM     17  C   UNL     1      48.059  11.063  15.694  0.00  0.00    +0.024 C 
ATOM     18  C   UNL     1      47.682  12.078  16.778  0.00  0.00    -0.017 C 
ATOM     19  C   UNL     1      46.957  11.367  17.922  0.00  0.00    +0.021 C 
ATOM     20  C   UNL     1      48.964  12.722  17.301  0.00  0.00    +0.082 C 
ATOM     21  C   UNL     1      49.804  13.234  16.161  0.00  0.00    -0.023 A 
BRANCH   7   8
ATOM      8  O   UNL     1      52.607  15.561  15.738  0.00  0.00    -0.486 OA
ATOM      9  H   UNL     1      53.080  15.375  16.561  0.00  0.00    +0.385 HD
ENDBRANCH   7   8
BRANCH  11  12
ATOM     12  O   UNL     1      50.270  12.901  12.574  0.00  0.00    -0.491 OA
ATOM     13  H   UNL     1      49.344  12.763  12.331  0.00  0.00    +0.392 HD
ENDBRANCH  11  12
ENDBRANCH   5   6
BRANCH  56  57
ATOM     57  O   UNL     1      51.511  15.937  21.778  0.00  0.00    -0.463 OA
ATOM     58  H   UNL     1      52.378  15.733  22.156  0.00  0.00    +0.381 HD
ENDBRANCH  56  57
BRANCH  60  61
ATOM     61  O   UNL     1      52.986  13.990  22.231  0.00  0.00    -0.295 OA
ATOM     62  C   UNL     1      54.154  14.766  22.505  0.00  0.00    +0.240 C 
ENDBRANCH  60  61
ENDBRANCH  24  23
BRANCH  49  50
ATOM     50  O   UNL     1      51.982  20.407  22.205  0.00  0.00    -0.291 OA
ATOM     51  C   UNL     1      52.904  21.278  21.548  0.00  0.00    +0.246 C 
ENDBRANCH  49  50
BRANCH  53  54
ATOM     54  O   UNL     1      51.910  18.207  21.052  0.00  0.00    -0.463 OA
ATOM     55  H   UNL     1      52.445  17.990  20.275  0.00  0.00    +0.393 HD
ENDBRANCH  53  54
TORSDOF 11
ENDMDL
MODEL 6
REMARK VINA RESULT:      -3.7      2.452      9.255
REMARK  Name = ZINC95486175
REMARK  18 active torsions:
REMARK  status: ('A' for Active; 'I' for Inactive)
REMARK    1  A    between atoms: C1_1  and  C2_2
REMARK    2  A    between atoms: C5_5  and  C35_43
REMARK    3  A    between atoms: C7_7  and  C13_15
REMARK    4  A    between atoms: C8_8  and  O2_14
REMARK    5  A    between atoms: C10_10  and  O1_12
REMARK    6  A    between atoms: O1_12  and  C12_13
REMARK    7  A    between atoms: C15_17  and  C25_29
REMARK    8  A    between atoms: C18_20  and  C24_28
REMARK    9  A    between atoms: C20_22  and  O4_26
REMARK   10  A    between atoms: C22_24  and  O3_25
REMARK   11  A    between atoms: O4_26  and  C23_27
REMARK   12  A    between atoms: C26_30  and  O6_42
REMARK   13  A    between atoms: C28_32  and  O5_41
REMARK   14  A    between atoms: C32_36  and  C34_40
REMARK   15  A    between atoms: C36_44  and  O8_58
REMARK   16  A    between atoms: C38_46  and  O7_57
REMARK   17  A    between atoms: C42_50  and  C46_56
REMARK   18  A    between atoms: C44_53  and  C45_55
REMARK                            x       y       z     vdW  Elec       q    Type
REMARK                         _______ _______ _______ _____ _____    ______ ____
ROOT
ATOM     24  C   UNL     1      48.571  17.105  19.599  0.00  0.00    -0.090 A 
ATOM     25  C   UNL     1      47.258  17.581  19.493  0.00  0.00    +0.075 A 
ATOM     26  C   UNL     1      46.913  18.816  20.005  0.00  0.00    -0.083 A 
ATOM     44  C   UNL     1      47.897  19.611  20.645  0.00  0.00    +0.032 A 
ATOM     45  C   UNL     1      47.573  20.868  21.174  0.00  0.00    -0.047 A 
ATOM     46  C   UNL     1      48.533  21.618  21.786  0.00  0.00    -0.017 A 
ATOM     47  C   UNL     1      48.173  22.968  22.351  0.00  0.00    +0.094 C 
ATOM     48  C   UNL     1      49.841  21.155  21.897  0.00  0.00    -0.100 A 
ATOM     49  C   UNL     1      50.197  19.925  21.390  0.00  0.00    +0.172 A 
ATOM     52  C   UNL     1      49.223  19.130  20.752  0.00  0.00    -0.107 A 
ATOM     53  C   UNL     1      49.550  17.865  20.228  0.00  0.00    +0.200 A 
ENDROOT
BRANCH  26  27
ATOM     27  C   UNL     1      45.522  19.307  19.885  0.00  0.00    -0.054 A 
ATOM     28  C   UNL     1      45.251  20.468  19.153  0.00  0.00    +0.172 A 
ATOM     31  C   UNL     1      43.948  20.920  19.045  0.00  0.00    -0.014 A 
ATOM     32  C   UNL     1      42.921  20.224  19.661  0.00  0.00    +0.158 A 
ATOM     35  C   UNL     1      43.186  19.067  20.392  0.00  0.00    -0.176 A 
ATOM     36  C   UNL     1      42.033  18.345  21.037  0.00  0.00    +0.338 C 
ATOM     37  N   UNL     1      42.508  17.440  22.083  0.00  0.00    -0.503 N 
ATOM     38  H   UNL     1      42.905  17.982  22.836  0.00  0.00    +0.430 HD
ATOM     39  H   UNL     1      41.738  16.889  22.430  0.00  0.00    +0.434 HD
ATOM     40  C   UNL     1      43.536  16.549  21.523  0.00  0.00    +0.173 C 
ATOM     41  C   UNL     1      43.829  15.414  22.505  0.00  0.00    +0.096 C 
ATOM     42  C   UNL     1      44.809  17.363  21.285  0.00  0.00    +0.134 C 
ATOM     43  C   UNL     1      44.479  18.608  20.502  0.00  0.00    -0.041 A 
BRANCH  28  29
ATOM     29  O   UNL     1      46.263  21.145  18.550  0.00  0.00    -0.480 OA
ATOM     30  H   UNL     1      46.092  22.090  18.439  0.00  0.00    +0.402 HD
ENDBRANCH  28  29
BRANCH  32  33
ATOM     33  O   UNL     1      41.643  20.672  19.552  0.00  0.00    -0.492 OA
ATOM     34  H   UNL     1      41.548  21.625  19.687  0.00  0.00    +0.404 HD
ENDBRANCH  32  33
ENDBRANCH  26  27
BRANCH  24  23
ATOM      1  C   UNL     1      49.769  10.277  15.705  0.00  0.00    +0.095 C 
ATOM      2  C   UNL     1      49.411  11.630  16.266  0.00  0.00    -0.026 A 
ATOM      3  C   UNL     1      49.910  12.007  17.477  0.00  0.00    -0.021 A 
ATOM      4  C   UNL     1      49.585  13.263  18.008  0.00  0.00    +0.026 A 
ATOM      5  C   UNL     1      50.093  13.676  19.265  0.00  0.00    -0.036 A 
ATOM     22  C   UNL     1      49.758  14.919  19.765  0.00  0.00    +0.055 A 
ATOM     23  C   UNL     1      48.919  15.776  19.042  0.00  0.00    -0.095 A 
ATOM     56  C   UNL     1      48.409  15.393  17.808  0.00  0.00    +0.181 A 
ATOM     59  C   UNL     1      48.738  14.131  17.278  0.00  0.00    -0.101 A 
ATOM     60  C   UNL     1      48.236  13.716  16.027  0.00  0.00    +0.158 A 
ATOM     63  C   UNL     1      48.582  12.477  15.537  0.00  0.00    -0.093 A 
BRANCH   5   6
ATOM      6  C   UNL     1      50.981  12.778  20.038  0.00  0.00    -0.086 A 
ATOM      7  C   UNL     1      50.460  11.623  20.626  0.00  0.00    +0.135 A 
ATOM     10  C   UNL     1      51.295  10.788  21.349  0.00  0.00    -0.039 A 
ATOM     11  C   UNL     1      52.636  11.107  21.484  0.00  0.00    +0.131 A 
ATOM     14  C   UNL     1      53.159  12.260  20.900  0.00  0.00    -0.101 A 
ATOM     15  C   UNL     1      54.626  12.542  21.099  0.00  0.00    +0.036 C 
ATOM     16  C   UNL     1      54.846  13.103  22.505  0.00  0.00    +0.035 C 
ATOM     17  C   UNL     1      55.126  13.544  20.056  0.00  0.00    +0.024 C 
ATOM     18  C   UNL     1      54.192  14.758  20.076  0.00  0.00    -0.017 C 
ATOM     19  C   UNL     1      54.789  15.884  19.229  0.00  0.00    +0.021 C 
ATOM     20  C   UNL     1      52.842  14.337  19.496  0.00  0.00    +0.082 C 
ATOM     21  C   UNL     1      52.340  13.089  20.172  0.00  0.00    -0.023 A 
BRANCH   7   8
ATOM      8  O   UNL     1      49.143  11.321  20.491  0.00  0.00    -0.486 OA
ATOM      9  H   UNL     1      48.914  10.425  20.774  0.00  0.00    +0.385 HD
ENDBRANCH   7   8
BRANCH  11  12
ATOM     12  O   UNL     1      53.452  10.285  22.196  0.00  0.00    -0.491 OA
ATOM     13  H   UNL     1      53.816   9.550  21.682  0.00  0.00    +0.392 HD
ENDBRANCH  11  12
ENDBRANCH   5   6
BRANCH  56  57
ATOM     57  O   UNL     1      47.596  16.231  17.115  0.00  0.00    -0.463 OA
ATOM     58  H   UNL     1      47.695  17.163  17.357  0.00  0.00    +0.381 HD
ENDBRANCH  56  57
BRANCH  60  61
ATOM     61  O   UNL     1      47.421  14.533  15.311  0.00  0.00    -0.295 OA
ATOM     62  C   UNL     1      46.014  14.324  15.443  0.00  0.00    +0.240 C 
ENDBRANCH  60  61
ENDBRANCH  24  23
BRANCH  49  50
ATOM     50  O   UNL     1      51.476  19.482  21.503  0.00  0.00    -0.291 OA
ATOM     51  C   UNL     1      52.511  20.381  21.101  0.00  0.00    +0.246 C 
ENDBRANCH  49  50
BRANCH  53  54
ATOM     54  O   UNL     1      50.818  17.393  20.330  0.00  0.00    -0.463 OA
ATOM     55  H   UNL     1      50.894  16.437  20.201  0.00  0.00    +0.393 HD
ENDBRANCH  53  54
TORSDOF 11
ENDMDL
MODEL 7
REMARK VINA RESULT:      -3.5      2.200      4.481
REMARK  Name = ZINC95486175
REMARK  18 active torsions:
REMARK  status: ('A' for Active; 'I' for Inactive)
REMARK    1  A    between atoms: C1_1  and  C2_2
REMARK    2  A    between atoms: C5_5  and  C35_43
REMARK    3  A    between atoms: C7_7  and  C13_15
REMARK    4  A    between atoms: C8_8  and  O2_14
REMARK    5  A    between atoms: C10_10  and  O1_12
REMARK    6  A    between atoms: O1_12  and  C12_13
REMARK    7  A    between atoms: C15_17  and  C25_29
REMARK    8  A    between atoms: C18_20  and  C24_28
REMARK    9  A    between atoms: C20_22  and  O4_26
REMARK   10  A    between atoms: C22_24  and  O3_25
REMARK   11  A    between atoms: O4_26  and  C23_27
REMARK   12  A    between atoms: C26_30  and  O6_42
REMARK   13  A    between atoms: C28_32  and  O5_41
REMARK   14  A    between atoms: C32_36  and  C34_40
REMARK   15  A    between atoms: C36_44  and  O8_58
REMARK   16  A    between atoms: C38_46  and  O7_57
REMARK   17  A    between atoms: C42_50  and  C46_56
REMARK   18  A    between atoms: C44_53  and  C45_55
REMARK                            x       y       z     vdW  Elec       q    Type
REMARK                         _______ _______ _______ _____ _____    ______ ____
ROOT
ATOM     24  C   UNL     1      49.838  14.770  20.079  0.00  0.00    -0.090 A 
ATOM     25  C   UNL     1      49.794  14.041  18.884  0.00  0.00    +0.075 A 
ATOM     26  C   UNL     1      50.893  13.321  18.459  0.00  0.00    -0.083 A 
ATOM     44  C   UNL     1      52.077  13.320  19.237  0.00  0.00    +0.032 A 
ATOM     45  C   UNL     1      53.208  12.599  18.828  0.00  0.00    -0.047 A 
ATOM     46  C   UNL     1      54.337  12.610  19.591  0.00  0.00    -0.017 A 
ATOM     47  C   UNL     1      55.546  11.831  19.140  0.00  0.00    +0.094 C 
ATOM     48  C   UNL     1      54.391  13.332  20.780  0.00  0.00    -0.100 A 
ATOM     49  C   UNL     1      53.302  14.053  21.214  0.00  0.00    +0.172 A 
ATOM     52  C   UNL     1      52.120  14.058  20.444  0.00  0.00    -0.107 A 
ATOM     53  C   UNL     1      50.990  14.789  20.855  0.00  0.00    +0.200 A 
ENDROOT
BRANCH  26  27
ATOM     27  C   UNL     1      50.834  12.553  17.194  0.00  0.00    -0.054 A 
ATOM     28  C   UNL     1      50.304  11.259  17.186  0.00  0.00    +0.172 A 
ATOM     31  C   UNL     1      50.252  10.548  16.001  0.00  0.00    -0.014 A 
ATOM     32  C   UNL     1      50.722  11.120  14.830  0.00  0.00    +0.158 A 
ATOM     35  C   UNL     1      51.251  12.410  14.833  0.00  0.00    -0.176 A 
ATOM     36  C   UNL     1      51.745  12.986  13.533  0.00  0.00    +0.338 C 
ATOM     37  N   UNL     1      52.630  14.125  13.773  0.00  0.00    -0.503 N 
ATOM     38  H   UNL     1      53.471  13.801  14.228  0.00  0.00    +0.430 HD
ATOM     39  H   UNL     1      52.866  14.563  12.896  0.00  0.00    +0.434 HD
ATOM     40  C   UNL     1      51.946  15.097  14.640  0.00  0.00    +0.173 C 
ATOM     41  C   UNL     1      52.727  16.412  14.661  0.00  0.00    +0.096 C 
ATOM     42  C   UNL     1      51.872  14.521  16.054  0.00  0.00    +0.134 C 
ATOM     43  C   UNL     1      51.305  13.125  16.007  0.00  0.00    -0.041 A 
BRANCH  28  29
ATOM     29  O   UNL     1      49.842  10.704  18.337  0.00  0.00    -0.480 OA
ATOM     30  H   UNL     1      50.164   9.807  18.499  0.00  0.00    +0.402 HD
ENDBRANCH  28  29
BRANCH  32  33
ATOM     33  O   UNL     1      50.668  10.418  13.668  0.00  0.00    -0.492 OA
ATOM     34  H   UNL     1      50.370  10.938  12.908  0.00  0.00    +0.404 HD
ENDBRANCH  32  33
ENDBRANCH  26  27
BRANCH  24  23
ATOM      1  C   UNL     1      42.901  17.847  22.454  0.00  0.00    +0.095 C 
ATOM      2  C   UNL     1      44.109  17.063  22.009  0.00  0.00    -0.026 A 
ATOM      3  C   UNL     1      45.276  17.717  21.753  0.00  0.00    -0.021 A 
ATOM      4  C   UNL     1      46.407  16.998  21.340  0.00  0.00    +0.026 A 
ATOM      5  C   UNL     1      47.631  17.658  21.068  0.00  0.00    -0.036 A 
ATOM     22  C   UNL     1      48.730  16.926  20.663  0.00  0.00    +0.055 A 
ATOM     23  C   UNL     1      48.646  15.536  20.516  0.00  0.00    -0.095 A 
ATOM     56  C   UNL     1      47.456  14.867  20.777  0.00  0.00    +0.181 A 
ATOM     59  C   UNL     1      46.324  15.592  21.192  0.00  0.00    -0.101 A 
ATOM     60  C   UNL     1      45.104  14.940  21.464  0.00  0.00    +0.158 A 
ATOM     63  C   UNL     1      44.017  15.681  21.873  0.00  0.00    -0.093 A 
BRANCH   5   6
ATOM      6  C   UNL     1      47.732  19.128  21.219  0.00  0.00    -0.086 A 
ATOM      7  C   UNL     1      48.792  19.681  21.941  0.00  0.00    +0.135 A 
ATOM     10  C   UNL     1      48.880  21.056  22.079  0.00  0.00    -0.039 A 
ATOM     11  C   UNL     1      47.917  21.868  21.503  0.00  0.00    +0.131 A 
ATOM     14  C   UNL     1      46.857  21.318  20.782  0.00  0.00    -0.101 A 
ATOM     15  C   UNL     1      45.846  22.267  20.192  0.00  0.00    +0.036 C 
ATOM     16  C   UNL     1      44.902  22.749  21.296  0.00  0.00    +0.035 C 
ATOM     17  C   UNL     1      45.043  21.577  19.087  0.00  0.00    +0.024 C 
ATOM     18  C   UNL     1      44.494  20.261  19.649  0.00  0.00    -0.017 C 
ATOM     19  C   UNL     1      43.489  19.659  18.666  0.00  0.00    +0.021 C 
ATOM     20  C   UNL     1      45.663  19.297  19.848  0.00  0.00    +0.082 C 
ATOM     21  C   UNL     1      46.767  19.956  20.631  0.00  0.00    -0.023 A 
BRANCH   7   8
ATOM      8  O   UNL     1      49.729  18.877  22.505  0.00  0.00    -0.486 OA
ATOM      9  H   UNL     1      50.561  18.838  22.014  0.00  0.00    +0.385 HD
ENDBRANCH   7   8
BRANCH  11  12
ATOM     12  O   UNL     1      48.007  23.218  21.642  0.00  0.00    -0.491 OA
ATOM     13  H   UNL     1      48.847  23.589  21.339  0.00  0.00    +0.392 HD
ENDBRANCH  11  12
ENDBRANCH   5   6
BRANCH  56  57
ATOM     57  O   UNL     1      47.385  13.519  20.631  0.00  0.00    -0.463 OA
ATOM     58  H   UNL     1      47.655  13.024  21.418  0.00  0.00    +0.381 HD
ENDBRANCH  56  57
BRANCH  60  61
ATOM     61  O   UNL     1      45.003  13.593  21.328  0.00  0.00    -0.295 OA
ATOM     62  C   UNL     1      44.694  12.844  22.505  0.00  0.00    +0.240 C 
ENDBRANCH  60  61
ENDBRANCH  24  23
BRANCH  49  50
ATOM     50  O   UNL     1      53.364  14.754  22.376  0.00  0.00    -0.291 OA
ATOM     51  C   UNL     1      54.328  15.806  22.449  0.00  0.00    +0.246 C 
ENDBRANCH  49  50
BRANCH  53  54
ATOM     54  O   UNL     1      51.024  15.503  22.008  0.00  0.00    -0.463 OA
ATOM     55  H   UNL     1      51.905  15.819  22.251  0.00  0.00    +0.393 HD
ENDBRANCH  53  54
TORSDOF 11
ENDMDL
MODEL 8
REMARK VINA RESULT:      -3.4      2.216      4.343
REMARK  Name = ZINC95486175
REMARK  18 active torsions:
REMARK  status: ('A' for Active; 'I' for Inactive)
REMARK    1  A    between atoms: C1_1  and  C2_2
REMARK    2  A    between atoms: C5_5  and  C35_43
REMARK    3  A    between atoms: C7_7  and  C13_15
REMARK    4  A    between atoms: C8_8  and  O2_14
REMARK    5  A    between atoms: C10_10  and  O1_12
REMARK    6  A    between atoms: O1_12  and  C12_13
REMARK    7  A    between atoms: C15_17  and  C25_29
REMARK    8  A    between atoms: C18_20  and  C24_28
REMARK    9  A    between atoms: C20_22  and  O4_26
REMARK   10  A    between atoms: C22_24  and  O3_25
REMARK   11  A    between atoms: O4_26  and  C23_27
REMARK   12  A    between atoms: C26_30  and  O6_42
REMARK   13  A    between atoms: C28_32  and  O5_41
REMARK   14  A    between atoms: C32_36  and  C34_40
REMARK   15  A    between atoms: C36_44  and  O8_58
REMARK   16  A    between atoms: C38_46  and  O7_57
REMARK   17  A    between atoms: C42_50  and  C46_56
REMARK   18  A    between atoms: C44_53  and  C45_55
REMARK                            x       y       z     vdW  Elec       q    Type
REMARK                         _______ _______ _______ _____ _____    ______ ____
ROOT
ATOM     24  C   UNL     1      49.835  16.829  20.130  0.00  0.00    -0.090 A 
ATOM     25  C   UNL     1      49.960  16.108  18.935  0.00  0.00    +0.075 A 
ATOM     26  C   UNL     1      51.187  15.616  18.536  0.00  0.00    -0.083 A 
ATOM     44  C   UNL     1      52.331  15.842  19.341  0.00  0.00    +0.032 A 
ATOM     45  C   UNL     1      53.589  15.354  18.958  0.00  0.00    -0.047 A 
ATOM     46  C   UNL     1      54.677  15.582  19.746  0.00  0.00    -0.017 A 
ATOM     47  C   UNL     1      56.024  15.052  19.323  0.00  0.00    +0.094 C 
ATOM     48  C   UNL     1      54.564  16.298  20.935  0.00  0.00    -0.100 A 
ATOM     49  C   UNL     1      53.347  16.793  21.343  0.00  0.00    +0.172 A 
ATOM     52  C   UNL     1      52.204  16.571  20.547  0.00  0.00    -0.107 A 
ATOM     53  C   UNL     1      50.945  17.068  20.931  0.00  0.00    +0.200 A 
ENDROOT
BRANCH  26  27
ATOM     27  C   UNL     1      51.306  14.854  17.271  0.00  0.00    -0.054 A 
ATOM     28  C   UNL     1      51.789  15.483  16.119  0.00  0.00    +0.172 A 
ATOM     31  C   UNL     1      51.898  14.764  14.943  0.00  0.00    -0.014 A 
ATOM     32  C   UNL     1      51.530  13.429  14.911  0.00  0.00    +0.158 A 
ATOM     35  C   UNL     1      51.049  12.798  16.057  0.00  0.00    -0.176 A 
ATOM     36  C   UNL     1      50.668  11.344  15.970  0.00  0.00    +0.338 C 
ATOM     37  N   UNL     1      49.809  10.965  17.091  0.00  0.00    -0.503 N 
ATOM     38  H   UNL     1      48.928  11.450  17.012  0.00  0.00    +0.430 HD
ATOM     39  H   UNL     1      49.651   9.969  17.075  0.00  0.00    +0.434 HD
ATOM     40  C   UNL     1      50.466  11.338  18.353  0.00  0.00    +0.173 C 
ATOM     41  C   UNL     1      49.733  10.693  19.530  0.00  0.00    +0.096 C 
ATOM     42  C   UNL     1      50.421  12.861  18.493  0.00  0.00    +0.134 C 
ATOM     43  C   UNL     1      50.940  13.505  17.232  0.00  0.00    -0.041 A 
BRANCH  28  29
ATOM     29  O   UNL     1      52.149  16.792  16.157  0.00  0.00    -0.480 OA
ATOM     30  H   UNL     1      51.777  17.282  16.903  0.00  0.00    +0.402 HD
ENDBRANCH  28  29
BRANCH  32  33
ATOM     33  O   UNL     1      51.640  12.727  13.753  0.00  0.00    -0.492 OA
ATOM     34  H   UNL     1      51.769  13.280  12.969  0.00  0.00    +0.404 HD
ENDBRANCH  32  33
ENDBRANCH  26  27
BRANCH  24  23
ATOM      1  C   UNL     1      42.406  18.497  22.419  0.00  0.00    +0.095 C 
ATOM      2  C   UNL     1      43.752  17.962  22.003  0.00  0.00    -0.026 A 
ATOM      3  C   UNL     1      44.753  18.833  21.695  0.00  0.00    -0.021 A 
ATOM      4  C   UNL     1      46.011  18.348  21.308  0.00  0.00    +0.026 A 
ATOM      5  C   UNL     1      47.066  19.236  20.984  0.00  0.00    -0.036 A 
ATOM     22  C   UNL     1      48.295  18.730  20.606  0.00  0.00    +0.055 A 
ATOM     23  C   UNL     1      48.509  17.348  20.539  0.00  0.00    -0.095 A 
ATOM     56  C   UNL     1      47.488  16.459  20.852  0.00  0.00    +0.181 A 
ATOM     59  C   UNL     1      46.228  16.950  21.241  0.00  0.00    -0.101 A 
ATOM     60  C   UNL     1      45.175  16.071  21.564  0.00  0.00    +0.158 A 
ATOM     63  C   UNL     1      43.956  16.587  21.945  0.00  0.00    -0.093 A 
BRANCH   5   6
ATOM      6  C   UNL     1      46.853  20.699  21.051  0.00  0.00    -0.086 A 
ATOM      7  C   UNL     1      47.724  21.495  21.799  0.00  0.00    +0.135 A 
ATOM     10  C   UNL     1      47.519  22.863  21.858  0.00  0.00    -0.039 A 
ATOM     11  C   UNL     1      46.452  23.428  21.178  0.00  0.00    +0.131 A 
ATOM     14  C   UNL     1      45.580  22.636  20.432  0.00  0.00    -0.101 A 
ATOM     15  C   UNL     1      44.439  23.324  19.728  0.00  0.00    +0.036 C 
ATOM     16  C   UNL     1      43.342  23.650  20.744  0.00  0.00    +0.035 C 
ATOM     17  C   UNL     1      43.874  22.430  18.622  0.00  0.00    +0.024 C 
ATOM     18  C   UNL     1      43.569  21.056  19.230  0.00  0.00    -0.017 C 
ATOM     19  C   UNL     1      42.779  20.212  18.228  0.00  0.00    +0.021 C 
ATOM     20  C   UNL     1      44.893  20.368  19.554  0.00  0.00    +0.082 C 
ATOM     21  C   UNL     1      45.782  21.279  20.359  0.00  0.00    -0.023 A 
BRANCH   7   8
ATOM      8  O   UNL     1      48.765  20.932  22.464  0.00  0.00    -0.486 OA
ATOM      9  H   UNL     1      48.535  20.599  23.343  0.00  0.00    +0.385 HD
ENDBRANCH   7   8
BRANCH  11  12
ATOM     12  O   UNL     1      46.253  24.772  21.240  0.00  0.00    -0.491 OA
ATOM     13  H   UNL     1      46.142  25.193  20.377  0.00  0.00    +0.392 HD
ENDBRANCH  11  12
ENDBRANCH   5   6
BRANCH  56  57
ATOM     57  O   UNL     1      47.705  15.120  20.783  0.00  0.00    -0.463 OA
ATOM     58  H   UNL     1      47.943  14.717  21.629  0.00  0.00    +0.381 HD
ENDBRANCH  56  57
BRANCH  60  61
ATOM     61  O   UNL     1      45.362  14.727  21.506  0.00  0.00    -0.295 OA
ATOM     62  C   UNL     1      44.922  14.062  20.320  0.00  0.00    +0.240 C 
ENDBRANCH  60  61
ENDBRANCH  24  23
BRANCH  49  50
ATOM     50  O   UNL     1      53.246  17.490  22.505  0.00  0.00    -0.291 OA
ATOM     51  C   UNL     1      53.673  18.853  22.483  0.00  0.00    +0.246 C 
ENDBRANCH  49  50
BRANCH  53  54
ATOM     54  O   UNL     1      50.814  17.773  22.084  0.00  0.00    -0.463 OA
ATOM     55  H   UNL     1      51.234  17.357  22.850  0.00  0.00    +0.393 HD
ENDBRANCH  53  54
TORSDOF 11
ENDMDL
