MODEL 1
REMARK VINA RESULT:      -5.2      0.000      0.000
REMARK  Name = ZINC02040970
REMARK  12 active torsions:
REMARK  status: ('A' for Active; 'I' for Inactive)
REMARK    1  A    between atoms: C1_1  and  C2_2
REMARK    2  A    between atoms: C2_2  and  C15_16
REMARK    3  A    between atoms: C3_3  and  C4_4
REMARK    4  A    between atoms: C4_4  and  C5_5
REMARK    5  A    between atoms: C5_5  and  C6_6
REMARK    6  A    between atoms: C6_6  and  C14_15
REMARK    7  A    between atoms: C7_7  and  C8_8
REMARK    8  A    between atoms: C8_8  and  C9_9
REMARK    9  A    between atoms: C9_9  and  C10_10
REMARK   10  A    between atoms: C10_10  and  C11_11
REMARK   11  A    between atoms: C10_10  and  C12_12
REMARK   12  A    between atoms: C10_10  and  O1_14
REMARK                            x       y       z     vdW  Elec       q    Type
REMARK                         _______ _______ _______ _____ _____    ______ ____
ROOT
ATOM      7  C   UNL     1      47.545  20.532  19.770  0.00  0.00    -0.127 C 
ATOM      8  C   UNL     1      47.250  21.509  20.880  0.00  0.00    +0.072 C 
ATOM      9  C   UNL     1      46.668  20.336  18.819  0.00  0.00    -0.058 C 
ENDROOT
BRANCH   7   6
ATOM      6  C   UNL     1      48.852  19.781  19.757  0.00  0.00    +0.058 C 
BRANCH   6   5
ATOM      5  C   UNL     1      50.009  20.771  19.613  0.00  0.00    +0.053 C 
BRANCH   5   4
ATOM      1  C   UNL     1      52.409  20.010  18.346  0.00  0.00    +0.072 C 
ATOM      2  C   UNL     1      51.362  20.777  17.581  0.00  0.00    -0.133 C 
ATOM      3  C   UNL     1      51.622  21.193  16.155  0.00  0.00    +0.072 C 
ATOM      4  C   UNL     1      50.224  21.083  18.154  0.00  0.00    -0.062 C 
ENDBRANCH   5   4
ENDBRANCH   6   5
ENDBRANCH   7   6
BRANCH   9  10
ATOM     10  C   UNL     1      45.324  21.015  18.881  0.00  0.00    +0.058 C 
BRANCH  10  11
ATOM     11  C   UNL     1      44.218  19.975  18.692  0.00  0.00    +0.005 C 
BRANCH  11  12
ATOM     12  C   UNL     1      42.975  20.404  19.475  0.00  0.00    +0.157 C 
ATOM     17  C   UNL     1      42.634  19.338  20.516  0.00  0.00    +0.064 C 
BRANCH  12  13
ATOM     13  O   UNL     1      43.232  21.647  20.132  0.00  0.00    -0.555 OA
ATOM     14  H   UNL     1      43.958  22.155  19.743  0.00  0.00    +0.375 HD
ENDBRANCH  12  13
BRANCH  12  15
ATOM     15  C   UNL     1      41.816  20.569  18.525  0.00  0.00    -0.073 C 
ATOM     16  C   UNL     1      41.042  21.622  18.613  0.00  0.00    +0.022 C 
ENDBRANCH  12  15
ENDBRANCH  11  12
ENDBRANCH  10  11
ENDBRANCH   9  10
TORSDOF 8
ENDMDL
MODEL 2
REMARK VINA RESULT:      -5.0      1.996      2.843
REMARK  Name = ZINC02040970
REMARK  12 active torsions:
REMARK  status: ('A' for Active; 'I' for Inactive)
REMARK    1  A    between atoms: C1_1  and  C2_2
REMARK    2  A    between atoms: C2_2  and  C15_16
REMARK    3  A    between atoms: C3_3  and  C4_4
REMARK    4  A    between atoms: C4_4  and  C5_5
REMARK    5  A    between atoms: C5_5  and  C6_6
REMARK    6  A    between atoms: C6_6  and  C14_15
REMARK    7  A    between atoms: C7_7  and  C8_8
REMARK    8  A    between atoms: C8_8  and  C9_9
REMARK    9  A    between atoms: C9_9  and  C10_10
REMARK   10  A    between atoms: C10_10  and  C11_11
REMARK   11  A    between atoms: C10_10  and  C12_12
REMARK   12  A    between atoms: C10_10  and  O1_14
REMARK                            x       y       z     vdW  Elec       q    Type
REMARK                         _______ _______ _______ _____ _____    ______ ____
ROOT
ATOM      7  C   UNL     1      48.002  20.491  20.217  0.00  0.00    -0.127 C 
ATOM      8  C   UNL     1      48.126  21.281  21.494  0.00  0.00    +0.072 C 
ATOM      9  C   UNL     1      46.871  20.488  19.556  0.00  0.00    -0.058 C 
ENDROOT
BRANCH   7   6
ATOM      6  C   UNL     1      49.179  19.705  19.699  0.00  0.00    +0.058 C 
BRANCH   6   5
ATOM      5  C   UNL     1      50.394  20.627  19.577  0.00  0.00    +0.053 C 
BRANCH   5   4
ATOM      1  C   UNL     1      52.442  19.621  17.922  0.00  0.00    +0.072 C 
ATOM      2  C   UNL     1      51.504  20.679  17.403  0.00  0.00    -0.133 C 
ATOM      3  C   UNL     1      51.697  21.246  16.019  0.00  0.00    +0.072 C 
ATOM      4  C   UNL     1      50.519  21.107  18.154  0.00  0.00    -0.062 C 
ENDBRANCH   5   4
ENDBRANCH   6   5
ENDBRANCH   7   6
BRANCH   9  10
ATOM     10  C   UNL     1      45.667  21.196  20.120  0.00  0.00    +0.058 C 
BRANCH  10  11
ATOM     11  C   UNL     1      45.120  22.178  19.081  0.00  0.00    +0.005 C 
BRANCH  11  12
ATOM     12  C   UNL     1      44.559  23.412  19.792  0.00  0.00    +0.157 C 
ATOM     17  C   UNL     1      44.473  24.575  18.804  0.00  0.00    +0.064 C 
BRANCH  12  13
ATOM     13  O   UNL     1      43.255  23.118  20.298  0.00  0.00    -0.555 OA
ATOM     14  H   UNL     1      43.200  23.113  21.264  0.00  0.00    +0.375 HD
ENDBRANCH  12  13
BRANCH  12  15
ATOM     15  C   UNL     1      45.467  23.789  20.934  0.00  0.00    -0.073 C 
ATOM     16  C   UNL     1      46.069  24.952  20.936  0.00  0.00    +0.022 C 
ENDBRANCH  12  15
ENDBRANCH  11  12
ENDBRANCH  10  11
ENDBRANCH   9  10
TORSDOF 8
ENDMDL
MODEL 3
REMARK VINA RESULT:      -4.9      1.350      1.814
REMARK  Name = ZINC02040970
REMARK  12 active torsions:
REMARK  status: ('A' for Active; 'I' for Inactive)
REMARK    1  A    between atoms: C1_1  and  C2_2
REMARK    2  A    between atoms: C2_2  and  C15_16
REMARK    3  A    between atoms: C3_3  and  C4_4
REMARK    4  A    between atoms: C4_4  and  C5_5
REMARK    5  A    between atoms: C5_5  and  C6_6
REMARK    6  A    between atoms: C6_6  and  C14_15
REMARK    7  A    between atoms: C7_7  and  C8_8
REMARK    8  A    between atoms: C8_8  and  C9_9
REMARK    9  A    between atoms: C9_9  and  C10_10
REMARK   10  A    between atoms: C10_10  and  C11_11
REMARK   11  A    between atoms: C10_10  and  C12_12
REMARK   12  A    between atoms: C10_10  and  O1_14
REMARK                            x       y       z     vdW  Elec       q    Type
REMARK                         _______ _______ _______ _____ _____    ______ ____
ROOT
ATOM      7  C   UNL     1      48.145  20.076  19.711  0.00  0.00    -0.127 C 
ATOM      8  C   UNL     1      47.497  18.800  20.182  0.00  0.00    +0.072 C 
ATOM      9  C   UNL     1      47.424  21.003  19.132  0.00  0.00    -0.058 C 
ENDROOT
BRANCH   7   6
ATOM      6  C   UNL     1      49.625  20.286  19.908  0.00  0.00    +0.058 C 
BRANCH   6   5
ATOM      5  C   UNL     1      50.247  20.789  18.604  0.00  0.00    +0.053 C 
BRANCH   5   4
ATOM      1  C   UNL     1      51.665  21.229  16.208  0.00  0.00    +0.072 C 
ATOM      2  C   UNL     1      51.405  19.824  16.684  0.00  0.00    -0.133 C 
ATOM      3  C   UNL     1      51.849  18.650  15.848  0.00  0.00    +0.072 C 
ATOM      4  C   UNL     1      50.794  19.621  17.825  0.00  0.00    -0.062 C 
ENDBRANCH   5   4
ENDBRANCH   6   5
ENDBRANCH   7   6
BRANCH   9  10
ATOM     10  C   UNL     1      45.965  20.756  18.850  0.00  0.00    +0.058 C 
BRANCH  10  11
ATOM     11  C   UNL     1      45.172  22.040  19.106  0.00  0.00    +0.005 C 
BRANCH  11  12
ATOM     12  C   UNL     1      44.044  21.753  20.098  0.00  0.00    +0.157 C 
ATOM     17  C   UNL     1      44.639  21.259  21.418  0.00  0.00    +0.064 C 
BRANCH  12  13
ATOM     13  O   UNL     1      43.296  22.949  20.330  0.00  0.00    -0.555 OA
ATOM     14  H   UNL     1      43.064  23.429  19.524  0.00  0.00    +0.375 HD
ENDBRANCH  12  13
BRANCH  12  15
ATOM     15  C   UNL     1      43.134  20.694  19.531  0.00  0.00    -0.073 C 
ATOM     16  C   UNL     1      42.040  21.040  18.899  0.00  0.00    +0.022 C 
ENDBRANCH  12  15
ENDBRANCH  11  12
ENDBRANCH  10  11
ENDBRANCH   9  10
TORSDOF 8
ENDMDL
MODEL 4
REMARK VINA RESULT:      -4.8      1.667      2.590
REMARK  Name = ZINC02040970
REMARK  12 active torsions:
REMARK  status: ('A' for Active; 'I' for Inactive)
REMARK    1  A    between atoms: C1_1  and  C2_2
REMARK    2  A    between atoms: C2_2  and  C15_16
REMARK    3  A    between atoms: C3_3  and  C4_4
REMARK    4  A    between atoms: C4_4  and  C5_5
REMARK    5  A    between atoms: C5_5  and  C6_6
REMARK    6  A    between atoms: C6_6  and  C14_15
REMARK    7  A    between atoms: C7_7  and  C8_8
REMARK    8  A    between atoms: C8_8  and  C9_9
REMARK    9  A    between atoms: C9_9  and  C10_10
REMARK   10  A    between atoms: C10_10  and  C11_11
REMARK   11  A    between atoms: C10_10  and  C12_12
REMARK   12  A    between atoms: C10_10  and  O1_14
REMARK                            x       y       z     vdW  Elec       q    Type
REMARK                         _______ _______ _______ _____ _____    ______ ____
ROOT
ATOM      7  C   UNL     1      48.062  20.113  20.343  0.00  0.00    -0.127 C 
ATOM      8  C   UNL     1      47.049  19.090  20.787  0.00  0.00    +0.072 C 
ATOM      9  C   UNL     1      48.164  21.253  20.979  0.00  0.00    -0.058 C 
ENDROOT
BRANCH   7   6
ATOM      6  C   UNL     1      48.960  19.823  19.167  0.00  0.00    +0.058 C 
BRANCH   6   5
ATOM      5  C   UNL     1      50.171  20.757  19.208  0.00  0.00    +0.053 C 
BRANCH   5   4
ATOM      1  C   UNL     1      52.434  19.515  18.075  0.00  0.00    +0.072 C 
ATOM      2  C   UNL     1      51.675  20.557  17.295  0.00  0.00    -0.133 C 
ATOM      3  C   UNL     1      52.161  20.982  15.933  0.00  0.00    +0.072 C 
ATOM      4  C   UNL     1      50.592  21.094  17.801  0.00  0.00    -0.062 C 
ENDBRANCH   5   4
ENDBRANCH   6   5
ENDBRANCH   7   6
BRANCH   9  10
ATOM     10  C   UNL     1      47.205  21.583  22.094  0.00  0.00    +0.058 C 
BRANCH  10  11
ATOM     11  C   UNL     1      46.388  22.819  21.714  0.00  0.00    +0.005 C 
BRANCH  11  12
ATOM     12  C   UNL     1      44.909  22.440  21.610  0.00  0.00    +0.157 C 
ATOM     17  C   UNL     1      44.628  21.233  22.505  0.00  0.00    +0.064 C 
BRANCH  12  13
ATOM     13  O   UNL     1      44.103  23.543  22.028  0.00  0.00    -0.555 OA
ATOM     14  H   UNL     1      43.252  23.604  21.573  0.00  0.00    +0.375 HD
ENDBRANCH  12  13
BRANCH  12  15
ATOM     15  C   UNL     1      44.581  22.092  20.181  0.00  0.00    -0.073 C 
ATOM     16  C   UNL     1      43.929  20.989  19.908  0.00  0.00    +0.022 C 
ENDBRANCH  12  15
ENDBRANCH  11  12
ENDBRANCH  10  11
ENDBRANCH   9  10
TORSDOF 8
ENDMDL
MODEL 5
REMARK VINA RESULT:      -4.7      3.948      6.604
REMARK  Name = ZINC02040970
REMARK  12 active torsions:
REMARK  status: ('A' for Active; 'I' for Inactive)
REMARK    1  A    between atoms: C1_1  and  C2_2
REMARK    2  A    between atoms: C2_2  and  C15_16
REMARK    3  A    between atoms: C3_3  and  C4_4
REMARK    4  A    between atoms: C4_4  and  C5_5
REMARK    5  A    between atoms: C5_5  and  C6_6
REMARK    6  A    between atoms: C6_6  and  C14_15
REMARK    7  A    between atoms: C7_7  and  C8_8
REMARK    8  A    between atoms: C8_8  and  C9_9
REMARK    9  A    between atoms: C9_9  and  C10_10
REMARK   10  A    between atoms: C10_10  and  C11_11
REMARK   11  A    between atoms: C10_10  and  C12_12
REMARK   12  A    between atoms: C10_10  and  O1_14
REMARK                            x       y       z     vdW  Elec       q    Type
REMARK                         _______ _______ _______ _____ _____    ______ ____
ROOT
ATOM      7  C   UNL     1      52.064  19.170  17.116  0.00  0.00    -0.127 C 
ATOM      8  C   UNL     1      51.799  18.449  15.819  0.00  0.00    +0.072 C 
ATOM      9  C   UNL     1      52.313  18.488  18.206  0.00  0.00    -0.058 C 
ENDROOT
BRANCH   7   6
ATOM      6  C   UNL     1      52.043  20.677  17.158  0.00  0.00    +0.058 C 
BRANCH   6   5
ATOM      5  C   UNL     1      51.430  21.142  18.480  0.00  0.00    +0.053 C 
BRANCH   5   4
ATOM      1  C   UNL     1      49.865  20.132  20.596  0.00  0.00    +0.072 C 
ATOM      2  C   UNL     1      49.204  20.611  19.330  0.00  0.00    -0.133 C 
ATOM      3  C   UNL     1      47.710  20.492  19.168  0.00  0.00    +0.072 C 
ATOM      4  C   UNL     1      49.927  21.130  18.369  0.00  0.00    -0.062 C 
ENDBRANCH   5   4
ENDBRANCH   6   5
ENDBRANCH   7   6
BRANCH   9  10
ATOM     10  C   UNL     1      52.241  16.983  18.186  0.00  0.00    +0.058 C 
BRANCH  10  11
ATOM     11  C   UNL     1      51.269  16.504  19.267  0.00  0.00    +0.005 C 
BRANCH  11  12
ATOM     12  C   UNL     1      50.026  15.907  18.605  0.00  0.00    +0.157 C 
ATOM     17  C   UNL     1      50.395  15.359  17.226  0.00  0.00    +0.064 C 
BRANCH  12  13
ATOM     13  O   UNL     1      49.515  14.849  19.418  0.00  0.00    -0.555 OA
ATOM     14  H   UNL     1      48.628  14.555  19.170  0.00  0.00    +0.375 HD
ENDBRANCH  12  13
BRANCH  12  15
ATOM     15  C   UNL     1      48.975  16.976  18.455  0.00  0.00    -0.073 C 
ATOM     16  C   UNL     1      48.607  17.371  17.262  0.00  0.00    +0.022 C 
ENDBRANCH  12  15
ENDBRANCH  11  12
ENDBRANCH  10  11
ENDBRANCH   9  10
TORSDOF 8
ENDMDL
MODEL 6
REMARK VINA RESULT:      -4.7     18.836     20.653
REMARK  Name = ZINC02040970
REMARK  12 active torsions:
REMARK  status: ('A' for Active; 'I' for Inactive)
REMARK    1  A    between atoms: C1_1  and  C2_2
REMARK    2  A    between atoms: C2_2  and  C15_16
REMARK    3  A    between atoms: C3_3  and  C4_4
REMARK    4  A    between atoms: C4_4  and  C5_5
REMARK    5  A    between atoms: C5_5  and  C6_6
REMARK    6  A    between atoms: C6_6  and  C14_15
REMARK    7  A    between atoms: C7_7  and  C8_8
REMARK    8  A    between atoms: C8_8  and  C9_9
REMARK    9  A    between atoms: C9_9  and  C10_10
REMARK   10  A    between atoms: C10_10  and  C11_11
REMARK   11  A    between atoms: C10_10  and  C12_12
REMARK   12  A    between atoms: C10_10  and  O1_14
REMARK                            x       y       z     vdW  Elec       q    Type
REMARK                         _______ _______ _______ _____ _____    ______ ____
ROOT
ATOM      7  C   UNL     1      55.065  34.225   6.123  0.00  0.00    -0.127 C 
ATOM      8  C   UNL     1      54.614  32.824   6.449  0.00  0.00    +0.072 C 
ATOM      9  C   UNL     1      54.198  35.206   6.110  0.00  0.00    -0.058 C 
ENDROOT
BRANCH   7   6
ATOM      6  C   UNL     1      56.515  34.496   5.812  0.00  0.00    +0.058 C 
BRANCH   6   5
ATOM      5  C   UNL     1      56.827  34.029   4.389  0.00  0.00    +0.053 C 
BRANCH   5   4
ATOM      1  C   UNL     1      56.409  31.523   3.167  0.00  0.00    +0.072 C 
ATOM      2  C   UNL     1      57.691  31.797   3.910  0.00  0.00    -0.133 C 
ATOM      3  C   UNL     1      58.726  30.709   4.054  0.00  0.00    +0.072 C 
ATOM      4  C   UNL     1      57.907  32.979   4.431  0.00  0.00    -0.062 C 
ENDBRANCH   5   4
ENDBRANCH   6   5
ENDBRANCH   7   6
BRANCH   9  10
ATOM     10  C   UNL     1      52.734  34.921   6.328  0.00  0.00    +0.058 C 
BRANCH  10  11
ATOM     11  C   UNL     1      51.994  35.002   4.991  0.00  0.00    +0.005 C 
BRANCH  11  12
ATOM     12  C   UNL     1      51.162  33.733   4.793  0.00  0.00    +0.157 C 
ATOM     17  C   UNL     1      51.098  32.954   6.107  0.00  0.00    +0.064 C 
BRANCH  12  13
ATOM     13  O   UNL     1      49.839  34.091   4.385  0.00  0.00    -0.555 OA
ATOM     14  H   UNL     1      49.177  33.407   4.555  0.00  0.00    +0.375 HD
ENDBRANCH  12  13
BRANCH  12  15
ATOM     15  C   UNL     1      51.799  32.876   3.730  0.00  0.00    -0.073 C 
ATOM     16  C   UNL     1      52.897  33.275   3.137  0.00  0.00    +0.022 C 
ENDBRANCH  12  15
ENDBRANCH  11  12
ENDBRANCH  10  11
ENDBRANCH   9  10
TORSDOF 8
ENDMDL
MODEL 7
REMARK VINA RESULT:      -4.6      1.337      2.220
REMARK  Name = ZINC02040970
REMARK  12 active torsions:
REMARK  status: ('A' for Active; 'I' for Inactive)
REMARK    1  A    between atoms: C1_1  and  C2_2
REMARK    2  A    between atoms: C2_2  and  C15_16
REMARK    3  A    between atoms: C3_3  and  C4_4
REMARK    4  A    between atoms: C4_4  and  C5_5
REMARK    5  A    between atoms: C5_5  and  C6_6
REMARK    6  A    between atoms: C6_6  and  C14_15
REMARK    7  A    between atoms: C7_7  and  C8_8
REMARK    8  A    between atoms: C8_8  and  C9_9
REMARK    9  A    between atoms: C9_9  and  C10_10
REMARK   10  A    between atoms: C10_10  and  C11_11
REMARK   11  A    between atoms: C10_10  and  C12_12
REMARK   12  A    between atoms: C10_10  and  O1_14
REMARK                            x       y       z     vdW  Elec       q    Type
REMARK                         _______ _______ _______ _____ _____    ______ ____
ROOT
ATOM      7  C   UNL     1      48.182  19.675  19.303  0.00  0.00    -0.127 C 
ATOM      8  C   UNL     1      47.722  18.570  18.387  0.00  0.00    +0.072 C 
ATOM      9  C   UNL     1      47.437  20.737  19.476  0.00  0.00    -0.058 C 
ENDROOT
BRANCH   7   6
ATOM      6  C   UNL     1      49.503  19.555  20.022  0.00  0.00    +0.058 C 
BRANCH   6   5
ATOM      5  C   UNL     1      50.338  20.811  19.766  0.00  0.00    +0.053 C 
BRANCH   5   4
ATOM      1  C   UNL     1      52.647  20.053  18.339  0.00  0.00    +0.072 C 
ATOM      2  C   UNL     1      51.520  20.759  17.631  0.00  0.00    -0.133 C 
ATOM      3  C   UNL     1      51.652  21.117  16.172  0.00  0.00    +0.072 C 
ATOM      4  C   UNL     1      50.425  21.063  18.283  0.00  0.00    -0.062 C 
ENDBRANCH   5   4
ENDBRANCH   6   5
ENDBRANCH   7   6
BRANCH   9  10
ATOM     10  C   UNL     1      46.163  20.900  18.687  0.00  0.00    +0.058 C 
BRANCH  10  11
ATOM     11  C   UNL     1      44.967  20.882  19.641  0.00  0.00    +0.005 C 
BRANCH  11  12
ATOM     12  C   UNL     1      43.956  19.835  19.171  0.00  0.00    +0.157 C 
ATOM     17  C   UNL     1      42.586  20.491  18.992  0.00  0.00    +0.064 C 
BRANCH  12  13
ATOM     13  O   UNL     1      44.387  19.283  17.925  0.00  0.00    -0.555 OA
ATOM     14  H   UNL     1      44.127  19.804  17.153  0.00  0.00    +0.375 HD
ENDBRANCH  12  13
BRANCH  12  15
ATOM     15  C   UNL     1      43.857  18.737  20.198  0.00  0.00    -0.073 C 
ATOM     16  C   UNL     1      44.538  17.629  20.040  0.00  0.00    +0.022 C 
ENDBRANCH  12  15
ENDBRANCH  11  12
ENDBRANCH  10  11
ENDBRANCH   9  10
TORSDOF 8
ENDMDL
MODEL 8
REMARK VINA RESULT:      -4.6      2.581      7.760
REMARK  Name = ZINC02040970
REMARK  12 active torsions:
REMARK  status: ('A' for Active; 'I' for Inactive)
REMARK    1  A    between atoms: C1_1  and  C2_2
REMARK    2  A    between atoms: C2_2  and  C15_16
REMARK    3  A    between atoms: C3_3  and  C4_4
REMARK    4  A    between atoms: C4_4  and  C5_5
REMARK    5  A    between atoms: C5_5  and  C6_6
REMARK    6  A    between atoms: C6_6  and  C14_15
REMARK    7  A    between atoms: C7_7  and  C8_8
REMARK    8  A    between atoms: C8_8  and  C9_9
REMARK    9  A    between atoms: C9_9  and  C10_10
REMARK   10  A    between atoms: C10_10  and  C11_11
REMARK   11  A    between atoms: C10_10  and  C12_12
REMARK   12  A    between atoms: C10_10  and  O1_14
REMARK                            x       y       z     vdW  Elec       q    Type
REMARK                         _______ _______ _______ _____ _____    ______ ____
ROOT
ATOM      7  C   UNL     1      46.237  20.545  18.877  0.00  0.00    -0.127 C 
ATOM      8  C   UNL     1      46.038  19.224  18.180  0.00  0.00    +0.072 C 
ATOM      9  C   UNL     1      47.425  20.883  19.315  0.00  0.00    -0.058 C 
ENDROOT
BRANCH   7   6
ATOM      6  C   UNL     1      45.069  21.478  19.072  0.00  0.00    +0.058 C 
BRANCH   6   5
ATOM      5  C   UNL     1      43.864  20.687  19.583  0.00  0.00    +0.053 C 
BRANCH   5   4
ATOM      1  C   UNL     1      41.403  19.316  19.679  0.00  0.00    +0.072 C 
ATOM      2  C   UNL     1      41.459  20.733  19.170  0.00  0.00    -0.133 C 
ATOM      3  C   UNL     1      40.209  21.398  18.652  0.00  0.00    +0.072 C 
ATOM      4  C   UNL     1      42.594  21.387  19.177  0.00  0.00    -0.062 C 
ENDBRANCH   5   4
ENDBRANCH   6   5
ENDBRANCH   7   6
BRANCH   9  10
ATOM     10  C   UNL     1      48.572  19.912  19.205  0.00  0.00    +0.058 C 
BRANCH  10  11
ATOM     11  C   UNL     1      49.896  20.676  19.295  0.00  0.00    +0.005 C 
BRANCH  11  12
ATOM     12  C   UNL     1      50.919  20.032  18.357  0.00  0.00    +0.157 C 
ATOM     17  C   UNL     1      51.291  21.021  17.251  0.00  0.00    +0.064 C 
BRANCH  12  13
ATOM     13  O   UNL     1      52.090  19.683  19.098  0.00  0.00    -0.555 OA
ATOM     14  H   UNL     1      52.079  18.782  19.449  0.00  0.00    +0.375 HD
ENDBRANCH  12  13
BRANCH  12  15
ATOM     15  C   UNL     1      50.326  18.791  17.743  0.00  0.00    -0.073 C 
ATOM     16  C   UNL     1      50.937  18.195  16.750  0.00  0.00    +0.022 C 
ENDBRANCH  12  15
ENDBRANCH  11  12
ENDBRANCH  10  11
ENDBRANCH   9  10
TORSDOF 8
ENDMDL
MODEL 9
REMARK VINA RESULT:      -4.6      2.329      7.669
REMARK  Name = ZINC02040970
REMARK  12 active torsions:
REMARK  status: ('A' for Active; 'I' for Inactive)
REMARK    1  A    between atoms: C1_1  and  C2_2
REMARK    2  A    between atoms: C2_2  and  C15_16
REMARK    3  A    between atoms: C3_3  and  C4_4
REMARK    4  A    between atoms: C4_4  and  C5_5
REMARK    5  A    between atoms: C5_5  and  C6_6
REMARK    6  A    between atoms: C6_6  and  C14_15
REMARK    7  A    between atoms: C7_7  and  C8_8
REMARK    8  A    between atoms: C8_8  and  C9_9
REMARK    9  A    between atoms: C9_9  and  C10_10
REMARK   10  A    between atoms: C10_10  and  C11_11
REMARK   11  A    between atoms: C10_10  and  C12_12
REMARK   12  A    between atoms: C10_10  and  O1_14
REMARK                            x       y       z     vdW  Elec       q    Type
REMARK                         _______ _______ _______ _____ _____    ______ ____
ROOT
ATOM      7  C   UNL     1      46.867  20.956  19.594  0.00  0.00    -0.127 C 
ATOM      8  C   UNL     1      47.058  21.610  20.938  0.00  0.00    +0.072 C 
ATOM      9  C   UNL     1      47.883  20.395  18.988  0.00  0.00    -0.058 C 
ENDROOT
BRANCH   7   6
ATOM      6  C   UNL     1      45.505  20.946  18.948  0.00  0.00    +0.058 C 
BRANCH   6   5
ATOM      5  C   UNL     1      44.436  21.218  20.009  0.00  0.00    +0.053 C 
BRANCH   5   4
ATOM      1  C   UNL     1      42.620  19.075  20.243  0.00  0.00    +0.072 C 
ATOM      2  C   UNL     1      42.262  20.280  19.413  0.00  0.00    -0.133 C 
ATOM      3  C   UNL     1      40.958  20.315  18.656  0.00  0.00    +0.072 C 
ATOM      4  C   UNL     1      43.083  21.299  19.349  0.00  0.00    -0.062 C 
ENDBRANCH   5   4
ENDBRANCH   6   5
ENDBRANCH   7   6
BRANCH   9  10
ATOM     10  C   UNL     1      49.262  20.486  19.587  0.00  0.00    +0.058 C 
BRANCH  10  11
ATOM     11  C   UNL     1      50.222  21.101  18.566  0.00  0.00    +0.005 C 
BRANCH  11  12
ATOM     12  C   UNL     1      51.598  20.445  18.700  0.00  0.00    +0.157 C 
ATOM     17  C   UNL     1      52.468  21.272  19.648  0.00  0.00    +0.064 C 
BRANCH  12  13
ATOM     13  O   UNL     1      51.446  19.123  19.224  0.00  0.00    -0.555 OA
ATOM     14  H   UNL     1      51.005  18.510  18.621  0.00  0.00    +0.375 HD
ENDBRANCH  12  13
BRANCH  12  15
ATOM     15  C   UNL     1      52.255  20.375  17.346  0.00  0.00    -0.073 C 
ATOM     16  C   UNL     1      51.702  20.969  16.318  0.00  0.00    +0.022 C 
ENDBRANCH  12  15
ENDBRANCH  11  12
ENDBRANCH  10  11
ENDBRANCH   9  10
TORSDOF 8
ENDMDL
