MODEL 1
REMARK VINA RESULT:      -6.3      0.000      0.000
REMARK  Name = ZINC31168265
REMARK  3 active torsions:
REMARK  status: ('A' for Active; 'I' for Inactive)
REMARK    1  A    between atoms: C1_1  and  C2_2
REMARK    2  A    between atoms: C16_18  and  C19_21
REMARK    3  A    between atoms: C16_18  and  O3_22
REMARK                            x       y       z     vdW  Elec       q    Type
REMARK                         _______ _______ _______ _____ _____    ______ ____
ROOT
ATOM      1  C   UNL     1      45.933  17.048  20.271  0.00  0.00    +0.117 C 
ATOM      2  C   UNL     1      46.315  18.482  20.008  0.00  0.00    -0.022 A 
ATOM      3  C   UNL     1      47.652  18.831  19.886  0.00  0.00    -0.064 A 
ATOM      4  C   UNL     1      48.009  20.145  19.647  0.00  0.00    -0.066 A 
ATOM      5  C   UNL     1      49.517  20.257  19.558  0.00  0.00    +0.176 C 
ATOM      8  C   UNL     1      49.915  21.149  18.380  0.00  0.00    +0.024 C 
ATOM      9  C   UNL     1      50.015  18.815  19.330  0.00  0.00    +0.027 C 
ATOM     10  C   UNL     1      47.033  21.125  19.526  0.00  0.00    +0.099 A 
ATOM     11  C   UNL     1      45.691  20.789  19.644  0.00  0.00    -0.122 A 
ATOM     12  C   UNL     1      44.639  21.822  19.515  0.00  0.00    +0.438 C 
ATOM     13  O   UNL     1      44.928  23.001  19.558  0.00  0.00    -0.427 OA
ATOM     14  C   UNL     1      43.233  21.401  19.333  0.00  0.00    -0.120 A 
ATOM     15  C   UNL     1      42.268  22.313  18.920  0.00  0.00    +0.075 A 
ATOM     16  C   UNL     1      40.957  21.901  18.756  0.00  0.00    +0.040 A 
ATOM     17  C   UNL     1      40.599  20.587  18.998  0.00  0.00    +0.040 A 
ATOM     18  C   UNL     1      41.547  19.667  19.411  0.00  0.00    +0.075 A 
ATOM     19  C   UNL     1      42.869  20.063  19.579  0.00  0.00    -0.119 A 
ATOM     20  C   UNL     1      43.897  19.094  20.015  0.00  0.00    +0.436 C 
ATOM     21  O   UNL     1      43.571  18.015  20.471  0.00  0.00    -0.422 OA
ATOM     22  C   UNL     1      48.895  17.972  19.974  0.00  0.00    +0.098 C 
ATOM     23  C   UNL     1      45.327  19.451  19.889  0.00  0.00    -0.117 A 
ENDROOT
BRANCH   5   6
ATOM      6  O   UNL     1      50.050  20.779  20.776  0.00  0.00    -0.578 OA
ATOM      7  H   UNL     1      51.001  21.333  20.769  0.00  0.00    +0.411 HD
ENDBRANCH   5   6
TORSDOF 1
ENDMDL
MODEL 2
REMARK VINA RESULT:      -6.2      1.820      2.600
REMARK  Name = ZINC31168265
REMARK  3 active torsions:
REMARK  status: ('A' for Active; 'I' for Inactive)
REMARK    1  A    between atoms: C1_1  and  C2_2
REMARK    2  A    between atoms: C16_18  and  C19_21
REMARK    3  A    between atoms: C16_18  and  O3_22
REMARK                            x       y       z     vdW  Elec       q    Type
REMARK                         _______ _______ _______ _____ _____    ______ ____
ROOT
ATOM      1  C   UNL     1      47.699  16.919  17.280  0.00  0.00    +0.117 C 
ATOM      2  C   UNL     1      48.234  18.135  17.991  0.00  0.00    -0.022 A 
ATOM      3  C   UNL     1      49.601  18.373  18.024  0.00  0.00    -0.064 A 
ATOM      4  C   UNL     1      50.099  19.486  18.676  0.00  0.00    -0.066 A 
ATOM      5  C   UNL     1      51.609  19.510  18.566  0.00  0.00    +0.176 C 
ATOM      8  C   UNL     1      52.095  20.922  18.233  0.00  0.00    +0.024 C 
ATOM      9  C   UNL     1      51.945  18.541  17.413  0.00  0.00    +0.027 C 
ATOM     10  C   UNL     1      49.236  20.376  19.302  0.00  0.00    +0.099 A 
ATOM     11  C   UNL     1      47.866  20.151  19.273  0.00  0.00    -0.122 A 
ATOM     12  C   UNL     1      46.933  21.091  19.933  0.00  0.00    +0.438 C 
ATOM     13  O   UNL     1      47.349  21.923  20.714  0.00  0.00    -0.427 OA
ATOM     14  C   UNL     1      45.487  21.007  19.629  0.00  0.00    -0.120 A 
ATOM     15  C   UNL     1      44.626  22.037  19.989  0.00  0.00    +0.075 A 
ATOM     16  C   UNL     1      43.276  21.940  19.697  0.00  0.00    +0.040 A 
ATOM     17  C   UNL     1      42.778  20.825  19.048  0.00  0.00    +0.040 A 
ATOM     18  C   UNL     1      43.622  19.790  18.684  0.00  0.00    +0.075 A 
ATOM     19  C   UNL     1      44.981  19.872  18.968  0.00  0.00    -0.119 A 
ATOM     20  C   UNL     1      45.899  18.779  18.582  0.00  0.00    +0.436 C 
ATOM     21  O   UNL     1      45.459  17.697  18.245  0.00  0.00    -0.422 OA
ATOM     22  C   UNL     1      50.743  17.574  17.432  0.00  0.00    +0.098 C 
ATOM     23  C   UNL     1      47.359  19.017  18.611  0.00  0.00    -0.117 A 
ENDROOT
BRANCH   5   6
ATOM      6  O   UNL     1      52.204  19.057  19.783  0.00  0.00    -0.578 OA
ATOM      7  H   UNL     1      52.410  17.985  19.930  0.00  0.00    +0.411 HD
ENDBRANCH   5   6
TORSDOF 1
ENDMDL
MODEL 3
REMARK VINA RESULT:      -6.1      3.203      6.430
REMARK  Name = ZINC31168265
REMARK  3 active torsions:
REMARK  status: ('A' for Active; 'I' for Inactive)
REMARK    1  A    between atoms: C1_1  and  C2_2
REMARK    2  A    between atoms: C16_18  and  C19_21
REMARK    3  A    between atoms: C16_18  and  O3_22
REMARK                            x       y       z     vdW  Elec       q    Type
REMARK                         _______ _______ _______ _____ _____    ______ ____
ROOT
ATOM      1  C   UNL     1      44.263  16.250  21.803  0.00  0.00    +0.117 C 
ATOM      2  C   UNL     1      44.727  16.983  20.571  0.00  0.00    -0.022 A 
ATOM      3  C   UNL     1      44.492  18.345  20.445  0.00  0.00    -0.064 A 
ATOM      4  C   UNL     1      44.914  19.022  19.316  0.00  0.00    -0.066 A 
ATOM      5  C   UNL     1      44.536  20.485  19.427  0.00  0.00    +0.176 C 
ATOM      8  C   UNL     1      45.701  21.370  18.980  0.00  0.00    +0.024 C 
ATOM      9  C   UNL     1      44.235  20.711  20.924  0.00  0.00    +0.027 C 
ATOM     10  C   UNL     1      45.577  18.347  18.300  0.00  0.00    +0.099 A 
ATOM     11  C   UNL     1      45.821  16.985  18.415  0.00  0.00    -0.122 A 
ATOM     12  C   UNL     1      46.528  16.251  17.342  0.00  0.00    +0.438 C 
ATOM     13  O   UNL     1      46.681  16.759  16.249  0.00  0.00    -0.427 OA
ATOM     14  C   UNL     1      47.047  14.893  17.616  0.00  0.00    -0.120 A 
ATOM     15  C   UNL     1      47.956  14.294  16.753  0.00  0.00    +0.075 A 
ATOM     16  C   UNL     1      48.430  13.022  17.026  0.00  0.00    +0.040 A 
ATOM     17  C   UNL     1      48.006  12.343  18.153  0.00  0.00    +0.040 A 
ATOM     18  C   UNL     1      47.099  12.925  19.023  0.00  0.00    +0.075 A 
ATOM     19  C   UNL     1      46.614  14.202  18.764  0.00  0.00    -0.119 A 
ATOM     20  C   UNL     1      45.649  14.842  19.684  0.00  0.00    +0.436 C 
ATOM     21  O   UNL     1      45.076  14.184  20.530  0.00  0.00    -0.422 OA
ATOM     22  C   UNL     1      43.803  19.305  21.390  0.00  0.00    +0.098 C 
ATOM     23  C   UNL     1      45.390  16.294  19.564  0.00  0.00    -0.117 A 
ENDROOT
BRANCH   5   6
ATOM      6  O   UNL     1      43.376  20.760  18.641  0.00  0.00    -0.578 OA
ATOM      7  H   UNL     1      43.472  21.308  17.691  0.00  0.00    +0.411 HD
ENDBRANCH   5   6
TORSDOF 1
ENDMDL
MODEL 4
REMARK VINA RESULT:      -6.0      3.596      7.113
REMARK  Name = ZINC31168265
REMARK  3 active torsions:
REMARK  status: ('A' for Active; 'I' for Inactive)
REMARK    1  A    between atoms: C1_1  and  C2_2
REMARK    2  A    between atoms: C16_18  and  C19_21
REMARK    3  A    between atoms: C16_18  and  O3_22
REMARK                            x       y       z     vdW  Elec       q    Type
REMARK                         _______ _______ _______ _____ _____    ______ ____
ROOT
ATOM      1  C   UNL     1      47.267  19.856  20.868  0.00  0.00    +0.117 C 
ATOM      2  C   UNL     1      47.612  18.586  20.134  0.00  0.00    -0.022 A 
ATOM      3  C   UNL     1      46.847  17.445  20.327  0.00  0.00    -0.064 A 
ATOM      4  C   UNL     1      47.159  16.276  19.658  0.00  0.00    -0.066 A 
ATOM      5  C   UNL     1      46.178  15.188  20.044  0.00  0.00    +0.176 C 
ATOM      8  C   UNL     1      45.729  14.413  18.804  0.00  0.00    +0.024 C 
ATOM      9  C   UNL     1      44.981  15.931  20.675  0.00  0.00    +0.027 C 
ATOM     10  C   UNL     1      48.239  16.235  18.786  0.00  0.00    +0.099 A 
ATOM     11  C   UNL     1      49.011  17.370  18.581  0.00  0.00    -0.122 A 
ATOM     12  C   UNL     1      50.163  17.343  17.653  0.00  0.00    +0.438 C 
ATOM     13  O   UNL     1      50.606  16.284  17.254  0.00  0.00    -0.427 OA
ATOM     14  C   UNL     1      50.769  18.620  17.217  0.00  0.00    -0.120 A 
ATOM     15  C   UNL     1      51.645  18.656  16.138  0.00  0.00    +0.075 A 
ATOM     16  C   UNL     1      52.203  19.861  15.744  0.00  0.00    +0.040 A 
ATOM     17  C   UNL     1      51.894  21.029  16.416  0.00  0.00    +0.040 A 
ATOM     18  C   UNL     1      51.024  21.011  17.493  0.00  0.00    +0.075 A 
ATOM     19  C   UNL     1      50.453  19.810  17.900  0.00  0.00    -0.119 A 
ATOM     20  C   UNL     1      49.518  19.770  19.045  0.00  0.00    +0.436 C 
ATOM     21  O   UNL     1      49.426  20.720  19.798  0.00  0.00    -0.422 OA
ATOM     22  C   UNL     1      45.636  17.222  21.208  0.00  0.00    +0.098 C 
ATOM     23  C   UNL     1      48.694  18.560  19.264  0.00  0.00    -0.117 A 
ENDROOT
BRANCH   5   6
ATOM      6  O   UNL     1      46.768  14.300  20.995  0.00  0.00    -0.578 OA
ATOM      7  H   UNL     1      47.840  14.061  20.934  0.00  0.00    +0.411 HD
ENDBRANCH   5   6
TORSDOF 1
ENDMDL
MODEL 5
REMARK VINA RESULT:      -5.9      1.406      6.637
REMARK  Name = ZINC31168265
REMARK  3 active torsions:
REMARK  status: ('A' for Active; 'I' for Inactive)
REMARK    1  A    between atoms: C1_1  and  C2_2
REMARK    2  A    between atoms: C16_18  and  C19_21
REMARK    3  A    between atoms: C16_18  and  O3_22
REMARK                            x       y       z     vdW  Elec       q    Type
REMARK                         _______ _______ _______ _____ _____    ______ ____
ROOT
ATOM      1  C   UNL     1      45.545  22.793  19.847  0.00  0.00    +0.117 C 
ATOM      2  C   UNL     1      44.835  21.481  19.637  0.00  0.00    -0.022 A 
ATOM      3  C   UNL     1      43.460  21.458  19.453  0.00  0.00    -0.064 A 
ATOM      4  C   UNL     1      42.802  20.257  19.261  0.00  0.00    -0.066 A 
ATOM      5  C   UNL     1      41.318  20.509  19.088  0.00  0.00    +0.176 C 
ATOM      8  C   UNL     1      40.768  19.665  17.936  0.00  0.00    +0.024 C 
ATOM      9  C   UNL     1      41.200  22.011  18.755  0.00  0.00    +0.027 C 
ATOM     10  C   UNL     1      43.512  19.064  19.250  0.00  0.00    +0.099 A 
ATOM     11  C   UNL     1      44.888  19.073  19.430  0.00  0.00    -0.122 A 
ATOM     12  C   UNL     1      45.659  17.809  19.419  0.00  0.00    +0.438 C 
ATOM     13  O   UNL     1      45.088  16.741  19.505  0.00  0.00    -0.427 OA
ATOM     14  C   UNL     1      47.133  17.864  19.300  0.00  0.00    -0.120 A 
ATOM     15  C   UNL     1      47.861  16.721  18.993  0.00  0.00    +0.075 A 
ATOM     16  C   UNL     1      49.240  16.790  18.887  0.00  0.00    +0.040 A 
ATOM     17  C   UNL     1      49.898  17.991  19.082  0.00  0.00    +0.040 A 
ATOM     18  C   UNL     1      49.188  19.139  19.388  0.00  0.00    +0.075 A 
ATOM     19  C   UNL     1      47.802  19.087  19.498  0.00  0.00    -0.119 A 
ATOM     20  C   UNL     1      47.025  20.303  19.820  0.00  0.00    +0.436 C 
ATOM     21  O   UNL     1      47.585  21.297  20.238  0.00  0.00    -0.422 OA
ATOM     22  C   UNL     1      42.463  22.598  19.421  0.00  0.00    +0.098 C 
ATOM     23  C   UNL     1      45.558  20.295  19.627  0.00  0.00    -0.117 A 
ENDROOT
BRANCH   5   6
ATOM      6  O   UNL     1      40.618  20.212  20.297  0.00  0.00    -0.578 OA
ATOM      7  H   UNL     1      39.994  19.308  20.365  0.00  0.00    +0.411 HD
ENDBRANCH   5   6
TORSDOF 1
ENDMDL
MODEL 6
REMARK VINA RESULT:      -5.9      4.133      7.476
REMARK  Name = ZINC31168265
REMARK  3 active torsions:
REMARK  status: ('A' for Active; 'I' for Inactive)
REMARK    1  A    between atoms: C1_1  and  C2_2
REMARK    2  A    between atoms: C16_18  and  C19_21
REMARK    3  A    between atoms: C16_18  and  O3_22
REMARK                            x       y       z     vdW  Elec       q    Type
REMARK                         _______ _______ _______ _____ _____    ______ ____
ROOT
ATOM      1  C   UNL     1      46.566  17.160  19.800  0.00  0.00    +0.117 C 
ATOM      2  C   UNL     1      47.493  16.459  18.841  0.00  0.00    -0.022 A 
ATOM      3  C   UNL     1      47.187  15.183  18.390  0.00  0.00    -0.064 A 
ATOM      4  C   UNL     1      48.034  14.533  17.511  0.00  0.00    -0.066 A 
ATOM      5  C   UNL     1      47.475  13.165  17.178  0.00  0.00    +0.176 C 
ATOM      8  C   UNL     1      47.594  12.893  15.678  0.00  0.00    +0.024 C 
ATOM      9  C   UNL     1      45.990  13.225  17.596  0.00  0.00    +0.027 C 
ATOM     10  C   UNL     1      49.197  15.152  17.072  0.00  0.00    +0.099 A 
ATOM     11  C   UNL     1      49.514  16.429  17.514  0.00  0.00    -0.122 A 
ATOM     12  C   UNL     1      50.749  17.103  17.054  0.00  0.00    +0.438 C 
ATOM     13  O   UNL     1      51.622  16.470  16.494  0.00  0.00    -0.427 OA
ATOM     14  C   UNL     1      50.907  18.556  17.284  0.00  0.00    -0.120 A 
ATOM     15  C   UNL     1      51.896  19.274  16.622  0.00  0.00    +0.075 A 
ATOM     16  C   UNL     1      52.029  20.633  16.850  0.00  0.00    +0.040 A 
ATOM     17  C   UNL     1      51.184  21.282  17.731  0.00  0.00    +0.040 A 
ATOM     18  C   UNL     1      50.194  20.582  18.399  0.00  0.00    +0.075 A 
ATOM     19  C   UNL     1      50.046  19.216  18.180  0.00  0.00    -0.119 A 
ATOM     20  C   UNL     1      48.992  18.452  18.881  0.00  0.00    +0.436 C 
ATOM     21  O   UNL     1      48.410  18.935  19.833  0.00  0.00    -0.422 OA
ATOM     22  C   UNL     1      46.001  14.296  18.706  0.00  0.00    +0.098 C 
ATOM     23  C   UNL     1      48.652  17.090  18.410  0.00  0.00    -0.117 A 
ENDROOT
BRANCH   5   6
ATOM      6  O   UNL     1      48.158  12.154  17.920  0.00  0.00    -0.578 OA
ATOM      7  H   UNL     1      48.072  11.098  17.621  0.00  0.00    +0.411 HD
ENDBRANCH   5   6
TORSDOF 1
ENDMDL
MODEL 7
REMARK VINA RESULT:      -5.9     20.207     22.253
REMARK  Name = ZINC31168265
REMARK  3 active torsions:
REMARK  status: ('A' for Active; 'I' for Inactive)
REMARK    1  A    between atoms: C1_1  and  C2_2
REMARK    2  A    between atoms: C16_18  and  C19_21
REMARK    3  A    between atoms: C16_18  and  O3_22
REMARK                            x       y       z     vdW  Elec       q    Type
REMARK                         _______ _______ _______ _____ _____    ______ ____
ROOT
ATOM      1  C   UNL     1      57.977  33.932   5.695  0.00  0.00    +0.117 C 
ATOM      2  C   UNL     1      57.161  33.087   4.752  0.00  0.00    -0.022 A 
ATOM      3  C   UNL     1      57.796  32.233   3.861  0.00  0.00    -0.064 A 
ATOM      4  C   UNL     1      57.053  31.457   2.991  0.00  0.00    -0.066 A 
ATOM      5  C   UNL     1      57.981  30.622   2.132  0.00  0.00    +0.176 C 
ATOM      8  C   UNL     1      57.458  29.188   2.024  0.00  0.00    +0.024 C 
ATOM      9  C   UNL     1      59.338  30.643   2.866  0.00  0.00    +0.027 C 
ATOM     10  C   UNL     1      55.667  31.523   3.002  0.00  0.00    +0.099 A 
ATOM     11  C   UNL     1      55.019  32.371   3.890  0.00  0.00    -0.122 A 
ATOM     12  C   UNL     1      53.541  32.452   3.916  0.00  0.00    +0.438 C 
ATOM     13  O   UNL     1      52.884  31.981   3.009  0.00  0.00    -0.427 OA
ATOM     14  C   UNL     1      52.874  33.112   5.060  0.00  0.00    -0.120 A 
ATOM     15  C   UNL     1      51.509  32.955   5.270  0.00  0.00    +0.075 A 
ATOM     16  C   UNL     1      50.902  33.581   6.345  0.00  0.00    +0.040 A 
ATOM     17  C   UNL     1      51.644  34.361   7.213  0.00  0.00    +0.040 A 
ATOM     18  C   UNL     1      53.004  34.528   7.018  0.00  0.00    +0.075 A 
ATOM     19  C   UNL     1      53.631  33.905   5.943  0.00  0.00    -0.119 A 
ATOM     20  C   UNL     1      55.083  34.068   5.720  0.00  0.00    +0.436 C 
ATOM     21  O   UNL     1      55.703  34.934   6.307  0.00  0.00    -0.422 OA
ATOM     22  C   UNL     1      59.272  31.973   3.645  0.00  0.00    +0.098 C 
ATOM     23  C   UNL     1      55.775  33.164   4.775  0.00  0.00    -0.117 A 
ENDROOT
BRANCH   5   6
ATOM      6  O   UNL     1      58.110  31.200   0.832  0.00  0.00    -0.578 OA
ATOM      7  H   UNL     1      57.553  30.777  -0.017  0.00  0.00    +0.411 HD
ENDBRANCH   5   6
TORSDOF 1
ENDMDL
MODEL 8
REMARK VINA RESULT:      -5.9      3.513      6.085
REMARK  Name = ZINC31168265
REMARK  3 active torsions:
REMARK  status: ('A' for Active; 'I' for Inactive)
REMARK    1  A    between atoms: C1_1  and  C2_2
REMARK    2  A    between atoms: C16_18  and  C19_21
REMARK    3  A    between atoms: C16_18  and  O3_22
REMARK                            x       y       z     vdW  Elec       q    Type
REMARK                         _______ _______ _______ _____ _____    ______ ____
ROOT
ATOM      1  C   UNL     1      46.712  19.335  19.394  0.00  0.00    +0.117 C 
ATOM      2  C   UNL     1      47.903  18.674  18.751  0.00  0.00    -0.022 A 
ATOM      3  C   UNL     1      49.076  19.392  18.563  0.00  0.00    -0.064 A 
ATOM      4  C   UNL     1      50.172  18.792  17.972  0.00  0.00    -0.066 A 
ATOM      5  C   UNL     1      51.313  19.784  17.885  0.00  0.00    +0.176 C 
ATOM      8  C   UNL     1      52.628  19.119  18.298  0.00  0.00    +0.024 C 
ATOM      9  C   UNL     1      50.946  20.908  18.877  0.00  0.00    +0.027 C 
ATOM     10  C   UNL     1      50.109  17.467  17.562  0.00  0.00    +0.099 A 
ATOM     11  C   UNL     1      48.942  16.737  17.746  0.00  0.00    -0.122 A 
ATOM     12  C   UNL     1      48.860  15.323  17.316  0.00  0.00    +0.438 C 
ATOM     13  O   UNL     1      49.704  14.855  16.579  0.00  0.00    -0.427 OA
ATOM     14  C   UNL     1      47.738  14.486  17.797  0.00  0.00    -0.120 A 
ATOM     15  C   UNL     1      47.778  13.104  17.662  0.00  0.00    +0.075 A 
ATOM     16  C   UNL     1      46.719  12.337  18.117  0.00  0.00    +0.040 A 
ATOM     17  C   UNL     1      45.621  12.938  18.705  0.00  0.00    +0.040 A 
ATOM     18  C   UNL     1      45.565  14.313  18.846  0.00  0.00    +0.075 A 
ATOM     19  C   UNL     1      46.621  15.098  18.396  0.00  0.00    -0.119 A 
ATOM     20  C   UNL     1      46.582  16.569  18.541  0.00  0.00    +0.436 C 
ATOM     21  O   UNL     1      45.541  17.133  18.818  0.00  0.00    -0.422 OA
ATOM     22  C   UNL     1      49.406  20.827  18.914  0.00  0.00    +0.098 C 
ATOM     23  C   UNL     1      47.825  17.348  18.346  0.00  0.00    -0.117 A 
ENDROOT
BRANCH   5   6
ATOM      6  O   UNL     1      51.418  20.307  16.560  0.00  0.00    -0.578 OA
ATOM      7  H   UNL     1      50.880  21.227  16.286  0.00  0.00    +0.411 HD
ENDBRANCH   5   6
TORSDOF 1
ENDMDL
MODEL 9
REMARK VINA RESULT:      -5.7      2.648      4.859
REMARK  Name = ZINC31168265
REMARK  3 active torsions:
REMARK  status: ('A' for Active; 'I' for Inactive)
REMARK    1  A    between atoms: C1_1  and  C2_2
REMARK    2  A    between atoms: C16_18  and  C19_21
REMARK    3  A    between atoms: C16_18  and  O3_22
REMARK                            x       y       z     vdW  Elec       q    Type
REMARK                         _______ _______ _______ _____ _____    ______ ____
ROOT
ATOM      1  C   UNL     1      50.077  18.700  18.381  0.00  0.00    +0.117 C 
ATOM      2  C   UNL     1      48.657  18.198  18.328  0.00  0.00    -0.022 A 
ATOM      3  C   UNL     1      48.379  16.964  17.757  0.00  0.00    -0.064 A 
ATOM      4  C   UNL     1      47.078  16.499  17.703  0.00  0.00    -0.066 A 
ATOM      5  C   UNL     1      47.049  15.140  17.037  0.00  0.00    +0.176 C 
ATOM      8  C   UNL     1      46.129  14.190  17.807  0.00  0.00    +0.024 C 
ATOM      9  C   UNL     1      48.506  14.634  17.088  0.00  0.00    +0.027 C 
ATOM     10  C   UNL     1      46.040  17.262  18.220  0.00  0.00    +0.099 A 
ATOM     11  C   UNL     1      46.304  18.498  18.796  0.00  0.00    -0.122 A 
ATOM     12  C   UNL     1      45.209  19.321  19.354  0.00  0.00    +0.438 C 
ATOM     13  O   UNL     1      44.051  19.058  19.097  0.00  0.00    -0.427 OA
ATOM     14  C   UNL     1      45.540  20.468  20.227  0.00  0.00    -0.120 A 
ATOM     15  C   UNL     1      44.558  21.080  20.997  0.00  0.00    +0.075 A 
ATOM     16  C   UNL     1      44.886  22.152  21.808  0.00  0.00    +0.040 A 
ATOM     17  C   UNL     1      46.187  22.620  21.859  0.00  0.00    +0.040 A 
ATOM     18  C   UNL     1      47.177  22.023  21.099  0.00  0.00    +0.075 A 
ATOM     19  C   UNL     1      46.864  20.943  20.279  0.00  0.00    -0.119 A 
ATOM     20  C   UNL     1      47.909  20.289  19.463  0.00  0.00    +0.436 C 
ATOM     21  O   UNL     1      48.987  20.827  19.297  0.00  0.00    -0.422 OA
ATOM     22  C   UNL     1      49.311  15.949  17.131  0.00  0.00    +0.098 C 
ATOM     23  C   UNL     1      47.629  18.972  18.849  0.00  0.00    -0.117 A 
ENDROOT
BRANCH   5   6
ATOM      6  O   UNL     1      46.612  15.259  15.682  0.00  0.00    -0.578 OA
ATOM      7  H   UNL     1      47.008  16.065  15.045  0.00  0.00    +0.411 HD
ENDBRANCH   5   6
TORSDOF 1
ENDMDL
