MODEL 1
REMARK VINA RESULT:      -5.9      0.000      0.000
REMARK  Name = ZINC95486349
REMARK  14 active torsions:
REMARK  status: ('A' for Active; 'I' for Inactive)
REMARK    1  A    between atoms: C1_1  and  C2_2
REMARK    2  A    between atoms: C2_2  and  C3_4
REMARK    3  A    between atoms: C2_2  and  C10_14
REMARK    4  A    between atoms: C3_4  and  C4_5
REMARK    5  A    between atoms: C4_5  and  C5_6
REMARK    6  A    between atoms: C5_6  and  C6_7
REMARK    7  A    between atoms: C5_6  and  C7_9
REMARK    8  A    between atoms: C5_6  and  O2_12
REMARK    9  A    between atoms: C7_9  and  C8_10
REMARK   10  A    between atoms: C7_9  and  C9_11
REMARK   11  A    between atoms: O2_12  and  O3_13
REMARK   12  A    between atoms: C14_20  and  C28_38
REMARK   13  A    between atoms: C22_30  and  C27_37
REMARK   14  A    between atoms: C25_33  and  O4_36
REMARK                            x       y       z     vdW  Elec       q    Type
REMARK                         _______ _______ _______ _____ _____    ______ ____
ROOT
ATOM      3  C   UNL     1      48.094  18.346  19.803  0.00  0.00    -0.002 C 
ATOM      4  C   UNL     1      46.935  18.124  20.806  0.00  0.00    +0.007 C 
ATOM      5  C   UNL     1      46.461  16.657  20.612  0.00  0.00    +0.010 C 
ATOM      6  C   UNL     1      46.903  16.341  19.179  0.00  0.00    -0.006 C 
ATOM      7  C   UNL     1      47.058  14.868  18.845  0.00  0.00    +0.009 C 
ATOM      8  C   UNL     1      45.688  14.184  18.901  0.00  0.00    +0.058 C 
ATOM      9  C   UNL     1      45.820  12.774  18.405  0.00  0.00    -0.061 C 
ATOM     10  C   UNL     1      46.744  12.399  17.569  0.00  0.00    -0.092 C 
ATOM     11  C   UNL     1      47.831  13.322  17.020  0.00  0.00    -0.009 C 
ATOM     12  C   UNL     1      49.200  12.892  17.550  0.00  0.00    +0.024 C 
ATOM     13  C   UNL     1      47.863  13.187  15.495  0.00  0.00    +0.031 C 
ATOM     14  C   UNL     1      48.073  11.719  15.119  0.00  0.00    +0.032 C 
ATOM     15  C   UNL     1      46.893  10.885  15.619  0.00  0.00    +0.163 C 
ATOM     18  C   UNL     1      46.771  10.943  17.132  0.00  0.00    +0.026 C 
ATOM     19  C   UNL     1      47.606  14.774  17.409  0.00  0.00    -0.004 C 
ATOM     20  C   UNL     1      48.898  15.564  17.222  0.00  0.00    +0.011 C 
ATOM     21  C   UNL     1      48.744  17.023  17.678  0.00  0.00    +0.023 C 
ATOM     22  C   UNL     1      48.313  16.994  19.132  0.00  0.00    -0.056 C 
ATOM     23  C   UNL     1      49.299  16.160  19.954  0.00  0.00    +0.021 C 
ENDROOT
BRANCH   3   2
ATOM      1  C   UNL     1      46.331  19.978  19.116  0.00  0.00    +0.017 C 
ATOM      2  C   UNL     1      47.701  19.396  18.762  0.00  0.00    -0.009 C 
BRANCH   2  24
ATOM     24  C   UNL     1      48.743  20.516  18.749  0.00  0.00    +0.022 C 
BRANCH  24  25
ATOM     25  C   UNL     1      49.885  20.160  19.704  0.00  0.00    +0.073 C 
BRANCH  25  26
ATOM     26  C   UNL     1      51.222  20.301  18.973  0.00  0.00    +0.055 C 
BRANCH  26  30
ATOM     30  C   UNL     1      51.033  19.964  17.492  0.00  0.00    -0.013 C 
ATOM     31  C   UNL     1      51.866  18.729  17.141  0.00  0.00    +0.027 C 
ATOM     32  C   UNL     1      51.488  21.147  16.637  0.00  0.00    +0.031 C 
ENDBRANCH  26  30
BRANCH  26  33
ATOM     33  C   UNL     1      52.227  19.356  19.578  0.00  0.00    +0.441 C 
ATOM     34  O   UNL     1      52.174  19.091  20.755  0.00  0.00    -0.441 OA
ENDBRANCH  26  33
BRANCH  26  27
ATOM     27  O   UNL     1      51.695  21.643  19.099  0.00  0.00    -0.189 OA
BRANCH  27  28
ATOM     28  O   UNL     1      53.064  21.748  19.621  0.00  0.00    -0.405 OA
ATOM     29  H   UNL     1      53.115  21.795  20.586  0.00  0.00    +0.395 HD
ENDBRANCH  27  28
ENDBRANCH  26  27
ENDBRANCH  25  26
ENDBRANCH  24  25
ENDBRANCH   2  24
ENDBRANCH   3   2
BRANCH  15  16
ATOM     16  O   UNL     1      45.676  11.415  15.088  0.00  0.00    -0.565 OA
ATOM     17  H   UNL     1      44.890  10.901  15.318  0.00  0.00    +0.374 HD
ENDBRANCH  15  16
TORSDOF 9
ENDMDL
MODEL 2
REMARK VINA RESULT:      -5.4      2.978      7.803
REMARK  Name = ZINC95486349
REMARK  14 active torsions:
REMARK  status: ('A' for Active; 'I' for Inactive)
REMARK    1  A    between atoms: C1_1  and  C2_2
REMARK    2  A    between atoms: C2_2  and  C3_4
REMARK    3  A    between atoms: C2_2  and  C10_14
REMARK    4  A    between atoms: C3_4  and  C4_5
REMARK    5  A    between atoms: C4_5  and  C5_6
REMARK    6  A    between atoms: C5_6  and  C6_7
REMARK    7  A    between atoms: C5_6  and  C7_9
REMARK    8  A    between atoms: C5_6  and  O2_12
REMARK    9  A    between atoms: C7_9  and  C8_10
REMARK   10  A    between atoms: C7_9  and  C9_11
REMARK   11  A    between atoms: O2_12  and  O3_13
REMARK   12  A    between atoms: C14_20  and  C28_38
REMARK   13  A    between atoms: C22_30  and  C27_37
REMARK   14  A    between atoms: C25_33  and  O4_36
REMARK                            x       y       z     vdW  Elec       q    Type
REMARK                         _______ _______ _______ _____ _____    ______ ____
ROOT
ATOM      3  C   UNL     1      49.821  16.286  18.803  0.00  0.00    -0.002 C 
ATOM      4  C   UNL     1      50.996  17.075  19.432  0.00  0.00    +0.007 C 
ATOM      5  C   UNL     1      50.373  18.332  20.099  0.00  0.00    +0.010 C 
ATOM      6  C   UNL     1      49.063  18.518  19.324  0.00  0.00    -0.006 C 
ATOM      7  C   UNL     1      47.986  19.320  20.031  0.00  0.00    +0.009 C 
ATOM      8  C   UNL     1      48.452  20.771  20.194  0.00  0.00    +0.058 C 
ATOM      9  C   UNL     1      47.322  21.596  20.735  0.00  0.00    -0.061 C 
ATOM     10  C   UNL     1      46.070  21.291  20.552  0.00  0.00    -0.092 C 
ATOM     11  C   UNL     1      45.589  20.046  19.807  0.00  0.00    -0.009 C 
ATOM     12  C   UNL     1      44.894  19.091  20.779  0.00  0.00    +0.024 C 
ATOM     13  C   UNL     1      44.556  20.470  18.759  0.00  0.00    +0.031 C 
ATOM     14  C   UNL     1      43.424  21.238  19.444  0.00  0.00    +0.032 C 
ATOM     15  C   UNL     1      43.976  22.517  20.075  0.00  0.00    +0.163 C 
ATOM     18  C   UNL     1      45.012  22.209  21.142  0.00  0.00    +0.026 C 
ATOM     19  C   UNL     1      46.730  19.296  19.139  0.00  0.00    -0.004 C 
ATOM     20  C   UNL     1      46.284  17.878  18.795  0.00  0.00    +0.011 C 
ATOM     21  C   UNL     1      47.429  17.053  18.189  0.00  0.00    +0.023 C 
ATOM     22  C   UNL     1      48.562  17.052  19.197  0.00  0.00    -0.056 C 
ATOM     23  C   UNL     1      48.055  16.556  20.553  0.00  0.00    +0.021 C 
ENDROOT
BRANCH   3   2
ATOM      1  C   UNL     1      51.240  16.980  16.868  0.00  0.00    +0.017 C 
ATOM      2  C   UNL     1      49.962  16.247  17.281  0.00  0.00    -0.009 C 
BRANCH   2  24
ATOM     24  C   UNL     1      50.036  14.791  16.813  0.00  0.00    +0.022 C 
BRANCH  24  25
ATOM     25  C   UNL     1      49.306  13.896  17.816  0.00  0.00    +0.073 C 
BRANCH  25  26
ATOM     26  C   UNL     1      48.103  13.242  17.134  0.00  0.00    +0.055 C 
BRANCH  26  30
ATOM     30  C   UNL     1      47.077  12.831  18.192  0.00  0.00    -0.013 C 
ATOM     31  C   UNL     1      45.845  13.734  18.085  0.00  0.00    +0.027 C 
ATOM     32  C   UNL     1      47.694  12.974  19.584  0.00  0.00    +0.031 C 
ENDBRANCH  26  30
BRANCH  26  33
ATOM     33  C   UNL     1      48.557  12.022  16.375  0.00  0.00    +0.441 C 
ATOM     34  O   UNL     1      47.811  11.081  16.245  0.00  0.00    -0.441 OA
ENDBRANCH  26  33
BRANCH  26  27
ATOM     27  O   UNL     1      47.506  14.172  16.228  0.00  0.00    -0.189 OA
BRANCH  27  28
ATOM     28  O   UNL     1      47.338  13.653  14.864  0.00  0.00    -0.405 OA
ATOM     29  H   UNL     1      47.648  14.254  14.172  0.00  0.00    +0.395 HD
ENDBRANCH  27  28
ENDBRANCH  26  27
ENDBRANCH  25  26
ENDBRANCH  24  25
ENDBRANCH   2  24
ENDBRANCH   3   2
BRANCH  15  16
ATOM     16  O   UNL     1      44.634  23.296  19.073  0.00  0.00    -0.565 OA
ATOM     17  H   UNL     1      44.031  23.757  18.475  0.00  0.00    +0.374 HD
ENDBRANCH  15  16
TORSDOF 9
ENDMDL
MODEL 3
REMARK VINA RESULT:      -5.3      3.236      7.217
REMARK  Name = ZINC95486349
REMARK  14 active torsions:
REMARK  status: ('A' for Active; 'I' for Inactive)
REMARK    1  A    between atoms: C1_1  and  C2_2
REMARK    2  A    between atoms: C2_2  and  C3_4
REMARK    3  A    between atoms: C2_2  and  C10_14
REMARK    4  A    between atoms: C3_4  and  C4_5
REMARK    5  A    between atoms: C4_5  and  C5_6
REMARK    6  A    between atoms: C5_6  and  C6_7
REMARK    7  A    between atoms: C5_6  and  C7_9
REMARK    8  A    between atoms: C5_6  and  O2_12
REMARK    9  A    between atoms: C7_9  and  C8_10
REMARK   10  A    between atoms: C7_9  and  C9_11
REMARK   11  A    between atoms: O2_12  and  O3_13
REMARK   12  A    between atoms: C14_20  and  C28_38
REMARK   13  A    between atoms: C22_30  and  C27_37
REMARK   14  A    between atoms: C25_33  and  O4_36
REMARK                            x       y       z     vdW  Elec       q    Type
REMARK                         _______ _______ _______ _____ _____    ______ ____
ROOT
ATOM      3  C   UNL     1      50.886  17.037  18.147  0.00  0.00    -0.002 C 
ATOM      4  C   UNL     1      51.818  18.034  18.880  0.00  0.00    +0.007 C 
ATOM      5  C   UNL     1      50.892  19.013  19.653  0.00  0.00    +0.010 C 
ATOM      6  C   UNL     1      49.578  18.933  18.869  0.00  0.00    -0.006 C 
ATOM      7  C   UNL     1      48.331  19.354  19.625  0.00  0.00    +0.009 C 
ATOM      8  C   UNL     1      48.406  20.852  19.943  0.00  0.00    +0.058 C 
ATOM      9  C   UNL     1      47.102  21.298  20.535  0.00  0.00    -0.061 C 
ATOM     10  C   UNL     1      45.971  20.701  20.292  0.00  0.00    -0.092 C 
ATOM     11  C   UNL     1      45.827  19.457  19.415  0.00  0.00    -0.009 C 
ATOM     12  C   UNL     1      45.405  18.261  20.270  0.00  0.00    +0.024 C 
ATOM     13  C   UNL     1      44.718  19.706  18.389  0.00  0.00    +0.031 C 
ATOM     14  C   UNL     1      43.427  20.082  19.119  0.00  0.00    +0.032 C 
ATOM     15  C   UNL     1      43.630  21.389  19.887  0.00  0.00    +0.163 C 
ATOM     18  C   UNL     1      44.713  21.251  20.944  0.00  0.00    +0.026 C 
ATOM     19  C   UNL     1      47.122  19.099  18.704  0.00  0.00    -0.004 C 
ATOM     20  C   UNL     1      47.057  17.657  18.210  0.00  0.00    +0.011 C 
ATOM     21  C   UNL     1      48.376  17.221  17.553  0.00  0.00    +0.023 C 
ATOM     22  C   UNL     1      49.473  17.409  18.584  0.00  0.00    -0.056 C 
ATOM     23  C   UNL     1      49.114  16.663  19.871  0.00  0.00    +0.021 C 
ENDROOT
BRANCH   3   2
ATOM      1  C   UNL     1      51.823  18.464  16.322  0.00  0.00    +0.017 C 
ATOM      2  C   UNL     1      51.030  17.192  16.632  0.00  0.00    -0.009 C 
BRANCH   2  24
ATOM     24  C   UNL     1      51.770  15.979  16.064  0.00  0.00    +0.022 C 
BRANCH  24  25
ATOM     25  C   UNL     1      51.534  14.768  16.969  0.00  0.00    +0.073 C 
BRANCH  25  26
ATOM     26  C   UNL     1      50.890  13.643  16.156  0.00  0.00    +0.055 C 
BRANCH  26  30
ATOM     30  C   UNL     1      49.367  13.780  16.211  0.00  0.00    -0.013 C 
ATOM     31  C   UNL     1      48.880  13.492  17.632  0.00  0.00    +0.027 C 
ATOM     32  C   UNL     1      48.730  12.784  15.241  0.00  0.00    +0.031 C 
ENDBRANCH  26  30
BRANCH  26  33
ATOM     33  C   UNL     1      51.295  12.311  16.733  0.00  0.00    +0.441 C 
ATOM     34  O   UNL     1      52.351  12.198  17.307  0.00  0.00    -0.441 OA
ENDBRANCH  26  33
BRANCH  26  27
ATOM     27  O   UNL     1      51.327  13.726  14.798  0.00  0.00    -0.189 OA
BRANCH  27  28
ATOM     28  O   UNL     1      52.394  12.775  14.455  0.00  0.00    -0.405 OA
ATOM     29  H   UNL     1      52.096  12.026  13.919  0.00  0.00    +0.395 HD
ENDBRANCH  27  28
ENDBRANCH  26  27
ENDBRANCH  25  26
ENDBRANCH  24  25
ENDBRANCH   2  24
ENDBRANCH   3   2
BRANCH  15  16
ATOM     16  O   UNL     1      44.063  22.409  18.985  0.00  0.00    -0.565 OA
ATOM     17  H   UNL     1      44.946  22.262  18.619  0.00  0.00    +0.374 HD
ENDBRANCH  15  16
TORSDOF 9
ENDMDL
MODEL 4
REMARK VINA RESULT:      -5.3      3.086      5.164
REMARK  Name = ZINC95486349
REMARK  14 active torsions:
REMARK  status: ('A' for Active; 'I' for Inactive)
REMARK    1  A    between atoms: C1_1  and  C2_2
REMARK    2  A    between atoms: C2_2  and  C3_4
REMARK    3  A    between atoms: C2_2  and  C10_14
REMARK    4  A    between atoms: C3_4  and  C4_5
REMARK    5  A    between atoms: C4_5  and  C5_6
REMARK    6  A    between atoms: C5_6  and  C6_7
REMARK    7  A    between atoms: C5_6  and  C7_9
REMARK    8  A    between atoms: C5_6  and  O2_12
REMARK    9  A    between atoms: C7_9  and  C8_10
REMARK   10  A    between atoms: C7_9  and  C9_11
REMARK   11  A    between atoms: O2_12  and  O3_13
REMARK   12  A    between atoms: C14_20  and  C28_38
REMARK   13  A    between atoms: C22_30  and  C27_37
REMARK   14  A    between atoms: C25_33  and  O4_36
REMARK                            x       y       z     vdW  Elec       q    Type
REMARK                         _______ _______ _______ _____ _____    ______ ____
ROOT
ATOM      3  C   UNL     1      48.049  20.056  19.531  0.00  0.00    -0.002 C 
ATOM      4  C   UNL     1      49.358  20.481  18.821  0.00  0.00    +0.007 C 
ATOM      5  C   UNL     1      49.844  19.243  18.018  0.00  0.00    +0.010 C 
ATOM      6  C   UNL     1      49.194  18.073  18.766  0.00  0.00    -0.006 C 
ATOM      7  C   UNL     1      49.037  16.788  17.974  0.00  0.00    +0.009 C 
ATOM      8  C   UNL     1      50.421  16.214  17.652  0.00  0.00    +0.058 C 
ATOM      9  C   UNL     1      50.261  14.861  17.022  0.00  0.00    -0.061 C 
ATOM     10  C   UNL     1      49.229  14.097  17.236  0.00  0.00    -0.092 C 
ATOM     11  C   UNL     1      48.039  14.485  18.113  0.00  0.00    -0.009 C 
ATOM     12  C   UNL     1      46.786  14.648  17.251  0.00  0.00    +0.024 C 
ATOM     13  C   UNL     1      47.772  13.350  19.106  0.00  0.00    +0.031 C 
ATOM     14  C   UNL     1      47.555  12.045  18.340  0.00  0.00    +0.032 C 
ATOM     15  C   UNL     1      48.827  11.680  17.572  0.00  0.00    +0.163 C 
ATOM     18  C   UNL     1      49.183  12.743  16.547  0.00  0.00    +0.026 C 
ATOM     19  C   UNL     1      48.273  15.786  18.861  0.00  0.00    -0.004 C 
ATOM     20  C   UNL     1      46.943  16.342  19.359  0.00  0.00    +0.011 C 
ATOM     21  C   UNL     1      47.117  17.701  20.054  0.00  0.00    +0.023 C 
ATOM     22  C   UNL     1      47.773  18.634  19.053  0.00  0.00    -0.056 C 
ATOM     23  C   UNL     1      46.956  18.670  17.760  0.00  0.00    +0.021 C 
ENDROOT
BRANCH   3   2
ATOM      1  C   UNL     1      49.560  20.768  21.389  0.00  0.00    +0.017 C 
ATOM      2  C   UNL     1      48.238  20.078  21.049  0.00  0.00    -0.009 C 
BRANCH   2  24
ATOM     24  C   UNL     1      47.081  20.844  21.696  0.00  0.00    +0.022 C 
BRANCH  24  25
ATOM     25  C   UNL     1      46.428  21.754  20.654  0.00  0.00    +0.073 C 
BRANCH  25  26
ATOM     26  C   UNL     1      44.906  21.613  20.737  0.00  0.00    +0.055 C 
BRANCH  26  30
ATOM     30  C   UNL     1      44.512  20.160  20.464  0.00  0.00    -0.013 C 
ATOM     31  C   UNL     1      43.778  20.074  19.124  0.00  0.00    +0.027 C 
ATOM     32  C   UNL     1      43.595  19.661  21.581  0.00  0.00    +0.031 C 
ENDBRANCH  26  30
BRANCH  26  33
ATOM     33  C   UNL     1      44.261  22.509  19.712  0.00  0.00    +0.441 C 
ATOM     34  O   UNL     1      44.732  23.597  19.480  0.00  0.00    -0.441 OA
ENDBRANCH  26  33
BRANCH  26  27
ATOM     27  O   UNL     1      44.464  21.989  22.043  0.00  0.00    -0.189 OA
BRANCH  27  28
ATOM     28  O   UNL     1      44.109  23.409  22.168  0.00  0.00    -0.405 OA
ATOM     29  H   UNL     1      43.451  23.591  22.854  0.00  0.00    +0.395 HD
ENDBRANCH  27  28
ENDBRANCH  26  27
ENDBRANCH  25  26
ENDBRANCH  24  25
ENDBRANCH   2  24
ENDBRANCH   3   2
BRANCH  15  16
ATOM     16  O   UNL     1      49.926  11.601  18.482  0.00  0.00    -0.565 OA
ATOM     17  H   UNL     1      50.665  12.183  18.257  0.00  0.00    +0.374 HD
ENDBRANCH  15  16
TORSDOF 9
ENDMDL
MODEL 5
REMARK VINA RESULT:      -5.3      4.231      6.444
REMARK  Name = ZINC95486349
REMARK  14 active torsions:
REMARK  status: ('A' for Active; 'I' for Inactive)
REMARK    1  A    between atoms: C1_1  and  C2_2
REMARK    2  A    between atoms: C2_2  and  C3_4
REMARK    3  A    between atoms: C2_2  and  C10_14
REMARK    4  A    between atoms: C3_4  and  C4_5
REMARK    5  A    between atoms: C4_5  and  C5_6
REMARK    6  A    between atoms: C5_6  and  C6_7
REMARK    7  A    between atoms: C5_6  and  C7_9
REMARK    8  A    between atoms: C5_6  and  O2_12
REMARK    9  A    between atoms: C7_9  and  C8_10
REMARK   10  A    between atoms: C7_9  and  C9_11
REMARK   11  A    between atoms: O2_12  and  O3_13
REMARK   12  A    between atoms: C14_20  and  C28_38
REMARK   13  A    between atoms: C22_30  and  C27_37
REMARK   14  A    between atoms: C25_33  and  O4_36
REMARK                            x       y       z     vdW  Elec       q    Type
REMARK                         _______ _______ _______ _____ _____    ______ ____
ROOT
ATOM      3  C   UNL     1      51.192  18.854  18.769  0.00  0.00    -0.002 C 
ATOM      4  C   UNL     1      51.250  20.287  18.183  0.00  0.00    +0.007 C 
ATOM      5  C   UNL     1      49.904  20.967  18.554  0.00  0.00    +0.010 C 
ATOM      6  C   UNL     1      48.961  19.776  18.753  0.00  0.00    -0.006 C 
ATOM      7  C   UNL     1      47.732  20.041  19.603  0.00  0.00    +0.009 C 
ATOM      8  C   UNL     1      46.817  21.037  18.881  0.00  0.00    +0.058 C 
ATOM      9  C   UNL     1      45.528  21.164  19.640  0.00  0.00    -0.061 C 
ATOM     10  C   UNL     1      45.055  20.219  20.398  0.00  0.00    -0.092 C 
ATOM     11  C   UNL     1      45.759  18.885  20.648  0.00  0.00    -0.009 C 
ATOM     12  C   UNL     1      46.204  18.794  22.109  0.00  0.00    +0.024 C 
ATOM     13  C   UNL     1      44.761  17.750  20.397  0.00  0.00    +0.031 C 
ATOM     14  C   UNL     1      43.528  17.955  21.279  0.00  0.00    +0.032 C 
ATOM     15  C   UNL     1      42.830  19.260  20.893  0.00  0.00    +0.163 C 
ATOM     18  C   UNL     1      43.735  20.461  21.111  0.00  0.00    +0.026 C 
ATOM     19  C   UNL     1      46.983  18.704  19.767  0.00  0.00    -0.004 C 
ATOM     20  C   UNL     1      47.872  17.604  20.338  0.00  0.00    +0.011 C 
ATOM     21  C   UNL     1      49.166  17.437  19.525  0.00  0.00    +0.023 C 
ATOM     22  C   UNL     1      49.870  18.780  19.527  0.00  0.00    -0.056 C 
ATOM     23  C   UNL     1      50.068  19.266  20.964  0.00  0.00    +0.021 C 
ENDROOT
BRANCH   3   2
ATOM      1  C   UNL     1      51.558  18.511  16.321  0.00  0.00    +0.017 C 
ATOM      2  C   UNL     1      51.215  17.819  17.642  0.00  0.00    -0.009 C 
BRANCH   2  24
ATOM     24  C   UNL     1      52.271  16.755  17.949  0.00  0.00    +0.022 C 
BRANCH  24  25
ATOM     25  C   UNL     1      53.141  17.222  19.118  0.00  0.00    +0.073 C 
BRANCH  25  26
ATOM     26  C   UNL     1      53.398  16.048  20.064  0.00  0.00    +0.055 C 
BRANCH  26  30
ATOM     30  C   UNL     1      52.105  15.251  20.252  0.00  0.00    -0.013 C 
ATOM     31  C   UNL     1      51.462  15.633  21.587  0.00  0.00    +0.027 C 
ATOM     32  C   UNL     1      52.422  13.755  20.248  0.00  0.00    +0.031 C 
ENDBRANCH  26  30
BRANCH  26  33
ATOM     33  C   UNL     1      53.865  16.569  21.398  0.00  0.00    +0.441 C 
ATOM     34  O   UNL     1      54.968  16.288  21.802  0.00  0.00    -0.441 OA
ENDBRANCH  26  33
BRANCH  26  27
ATOM     27  O   UNL     1      54.403  15.198  19.506  0.00  0.00    -0.189 OA
BRANCH  27  28
ATOM     28  O   UNL     1      55.638  15.901  19.132  0.00  0.00    -0.405 OA
ATOM     29  H   UNL     1      56.294  15.948  19.842  0.00  0.00    +0.395 HD
ENDBRANCH  27  28
ENDBRANCH  26  27
ENDBRANCH  25  26
ENDBRANCH  24  25
ENDBRANCH   2  24
ENDBRANCH   3   2
BRANCH  15  16
ATOM     16  O   UNL     1      42.507  19.235  19.501  0.00  0.00    -0.565 OA
ATOM     17  H   UNL     1      42.844  18.458  19.034  0.00  0.00    +0.374 HD
ENDBRANCH  15  16
TORSDOF 9
ENDMDL
MODEL 6
REMARK VINA RESULT:      -5.3      3.503      5.688
REMARK  Name = ZINC95486349
REMARK  14 active torsions:
REMARK  status: ('A' for Active; 'I' for Inactive)
REMARK    1  A    between atoms: C1_1  and  C2_2
REMARK    2  A    between atoms: C2_2  and  C3_4
REMARK    3  A    between atoms: C2_2  and  C10_14
REMARK    4  A    between atoms: C3_4  and  C4_5
REMARK    5  A    between atoms: C4_5  and  C5_6
REMARK    6  A    between atoms: C5_6  and  C6_7
REMARK    7  A    between atoms: C5_6  and  C7_9
REMARK    8  A    between atoms: C5_6  and  O2_12
REMARK    9  A    between atoms: C7_9  and  C8_10
REMARK   10  A    between atoms: C7_9  and  C9_11
REMARK   11  A    between atoms: O2_12  and  O3_13
REMARK   12  A    between atoms: C14_20  and  C28_38
REMARK   13  A    between atoms: C22_30  and  C27_37
REMARK   14  A    between atoms: C25_33  and  O4_36
REMARK                            x       y       z     vdW  Elec       q    Type
REMARK                         _______ _______ _______ _____ _____    ______ ____
ROOT
ATOM      3  C   UNL     1      46.447  17.684  18.968  0.00  0.00    -0.002 C 
ATOM      4  C   UNL     1      47.708  18.583  18.951  0.00  0.00    +0.007 C 
ATOM      5  C   UNL     1      48.804  17.789  18.188  0.00  0.00    +0.010 C 
ATOM      6  C   UNL     1      48.353  16.334  18.358  0.00  0.00    -0.006 C 
ATOM      7  C   UNL     1      48.891  15.352  17.333  0.00  0.00    +0.009 C 
ATOM      8  C   UNL     1      50.409  15.223  17.495  0.00  0.00    +0.058 C 
ATOM      9  C   UNL     1      50.911  14.128  16.600  0.00  0.00    -0.061 C 
ATOM     10  C   UNL     1      50.171  13.128  16.219  0.00  0.00    -0.092 C 
ATOM     11  C   UNL     1      48.699  12.956  16.594  0.00  0.00    -0.009 C 
ATOM     12  C   UNL     1      47.823  13.096  15.348  0.00  0.00    +0.024 C 
ATOM     13  C   UNL     1      48.496  11.543  17.146  0.00  0.00    +0.031 C 
ATOM     14  C   UNL     1      48.978  10.521  16.115  0.00  0.00    +0.032 C 
ATOM     15  C   UNL     1      50.478  10.698  15.876  0.00  0.00    +0.163 C 
ATOM     18  C   UNL     1      50.794  12.075  15.317  0.00  0.00    +0.026 C 
ATOM     19  C   UNL     1      48.240  13.984  17.614  0.00  0.00    -0.004 C 
ATOM     20  C   UNL     1      46.716  14.054  17.627  0.00  0.00    +0.011 C 
ATOM     21  C   UNL     1      46.203  15.138  18.588  0.00  0.00    +0.023 C 
ATOM     22  C   UNL     1      46.818  16.452  18.147  0.00  0.00    -0.056 C 
ATOM     23  C   UNL     1      46.514  16.703  16.669  0.00  0.00    +0.021 C 
ENDROOT
BRANCH   3   2
ATOM      1  C   UNL     1      47.035  18.006  21.375  0.00  0.00    +0.017 C 
ATOM      2  C   UNL     1      46.102  17.280  20.402  0.00  0.00    -0.009 C 
BRANCH   2  24
ATOM     24  C   UNL     1      44.652  17.664  20.705  0.00  0.00    +0.022 C 
BRANCH  24  25
ATOM     25  C   UNL     1      44.101  18.516  19.560  0.00  0.00    +0.073 C 
BRANCH  25  26
ATOM     26  C   UNL     1      43.213  19.624  20.131  0.00  0.00    +0.055 C 
BRANCH  26  30
ATOM     30  C   UNL     1      41.744  19.293  19.858  0.00  0.00    -0.013 C 
ATOM     31  C   UNL     1      41.059  20.503  19.219  0.00  0.00    +0.027 C 
ATOM     32  C   UNL     1      41.046  18.947  21.174  0.00  0.00    +0.031 C 
ENDBRANCH  26  30
BRANCH  26  33
ATOM     33  C   UNL     1      43.562  20.935  19.476  0.00  0.00    +0.441 C 
ATOM     34  O   UNL     1      44.701  21.157  19.140  0.00  0.00    -0.441 OA
ENDBRANCH  26  33
BRANCH  26  27
ATOM     27  O   UNL     1      43.425  19.724  21.540  0.00  0.00    -0.189 OA
BRANCH  27  28
ATOM     28  O   UNL     1      43.958  21.023  21.973  0.00  0.00    -0.405 OA
ATOM     29  H   UNL     1      43.283  21.704  22.097  0.00  0.00    +0.395 HD
ENDBRANCH  27  28
ENDBRANCH  26  27
ENDBRANCH  25  26
ENDBRANCH  24  25
ENDBRANCH   2  24
ENDBRANCH   3   2
BRANCH  15  16
ATOM     16  O   UNL     1      51.175  10.588  17.119  0.00  0.00    -0.565 OA
ATOM     17  H   UNL     1      51.870   9.916  17.122  0.00  0.00    +0.374 HD
ENDBRANCH  15  16
TORSDOF 9
ENDMDL
MODEL 7
REMARK VINA RESULT:      -5.2      3.123      8.118
REMARK  Name = ZINC95486349
REMARK  14 active torsions:
REMARK  status: ('A' for Active; 'I' for Inactive)
REMARK    1  A    between atoms: C1_1  and  C2_2
REMARK    2  A    between atoms: C2_2  and  C3_4
REMARK    3  A    between atoms: C2_2  and  C10_14
REMARK    4  A    between atoms: C3_4  and  C4_5
REMARK    5  A    between atoms: C4_5  and  C5_6
REMARK    6  A    between atoms: C5_6  and  C6_7
REMARK    7  A    between atoms: C5_6  and  C7_9
REMARK    8  A    between atoms: C5_6  and  O2_12
REMARK    9  A    between atoms: C7_9  and  C8_10
REMARK   10  A    between atoms: C7_9  and  C9_11
REMARK   11  A    between atoms: O2_12  and  O3_13
REMARK   12  A    between atoms: C14_20  and  C28_38
REMARK   13  A    between atoms: C22_30  and  C27_37
REMARK   14  A    between atoms: C25_33  and  O4_36
REMARK                            x       y       z     vdW  Elec       q    Type
REMARK                         _______ _______ _______ _____ _____    ______ ____
ROOT
ATOM      3  C   UNL     1      47.865  14.900  18.559  0.00  0.00    -0.002 C 
ATOM      4  C   UNL     1      48.386  14.503  19.964  0.00  0.00    +0.007 C 
ATOM      5  C   UNL     1      47.868  15.589  20.946  0.00  0.00    +0.010 C 
ATOM      6  C   UNL     1      47.642  16.799  20.033  0.00  0.00    -0.006 C 
ATOM      7  C   UNL     1      46.677  17.848  20.553  0.00  0.00    +0.009 C 
ATOM      8  C   UNL     1      47.268  18.514  21.801  0.00  0.00    +0.058 C 
ATOM      9  C   UNL     1      46.395  19.663  22.209  0.00  0.00    -0.061 C 
ATOM     10  C   UNL     1      45.643  20.316  21.371  0.00  0.00    -0.092 C 
ATOM     11  C   UNL     1      45.518  19.977  19.886  0.00  0.00    -0.009 C 
ATOM     12  C   UNL     1      44.107  19.469  19.583  0.00  0.00    +0.024 C 
ATOM     13  C   UNL     1      45.732  21.257  19.072  0.00  0.00    +0.031 C 
ATOM     14  C   UNL     1      44.738  22.324  19.533  0.00  0.00    +0.032 C 
ATOM     15  C   UNL     1      44.999  22.674  20.998  0.00  0.00    +0.163 C 
ATOM     18  C   UNL     1      44.807  21.469  21.902  0.00  0.00    +0.026 C 
ATOM     19  C   UNL     1      46.510  18.912  19.451  0.00  0.00    -0.004 C 
ATOM     20  C   UNL     1      46.071  18.310  18.120  0.00  0.00    +0.011 C 
ATOM     21  C   UNL     1      47.000  17.171  17.675  0.00  0.00    +0.023 C 
ATOM     22  C   UNL     1      46.998  16.135  18.784  0.00  0.00    -0.056 C 
ATOM     23  C   UNL     1      45.563  15.711  19.101  0.00  0.00    +0.021 C 
ENDROOT
BRANCH   3   2
ATOM      1  C   UNL     1      50.338  15.236  18.438  0.00  0.00    +0.017 C 
ATOM      2  C   UNL     1      49.036  15.235  17.634  0.00  0.00    -0.009 C 
BRANCH   2  24
ATOM     24  C   UNL     1      49.124  14.186  16.523  0.00  0.00    +0.022 C 
BRANCH  24  25
ATOM     25  C   UNL     1      47.713  13.756  16.115  0.00  0.00    +0.073 C 
BRANCH  25  26
ATOM     26  C   UNL     1      47.718  12.269  15.756  0.00  0.00    +0.055 C 
BRANCH  26  30
ATOM     30  C   UNL     1      46.867  11.497  16.766  0.00  0.00    -0.013 C 
ATOM     31  C   UNL     1      45.673  12.356  17.189  0.00  0.00    +0.027 C 
ATOM     32  C   UNL     1      47.714  11.161  17.995  0.00  0.00    +0.031 C 
ENDBRANCH  26  30
BRANCH  26  33
ATOM     33  C   UNL     1      49.131  11.748  15.787  0.00  0.00    +0.441 C 
ATOM     34  O   UNL     1      49.638  11.319  14.779  0.00  0.00    -0.441 OA
ENDBRANCH  26  33
BRANCH  26  27
ATOM     27  O   UNL     1      47.175  12.095  14.445  0.00  0.00    -0.189 OA
BRANCH  27  28
ATOM     28  O   UNL     1      47.532  13.165  13.504  0.00  0.00    -0.405 OA
ATOM     29  H   UNL     1      46.770  13.611  13.108  0.00  0.00    +0.395 HD
ENDBRANCH  27  28
ENDBRANCH  26  27
ENDBRANCH  25  26
ENDBRANCH  24  25
ENDBRANCH   2  24
ENDBRANCH   3   2
BRANCH  15  16
ATOM     16  O   UNL     1      46.358  23.092  21.153  0.00  0.00    -0.565 OA
ATOM     17  H   UNL     1      47.004  22.466  20.800  0.00  0.00    +0.374 HD
ENDBRANCH  15  16
TORSDOF 9
ENDMDL
MODEL 8
REMARK VINA RESULT:      -5.0      2.873      4.063
REMARK  Name = ZINC95486349
REMARK  14 active torsions:
REMARK  status: ('A' for Active; 'I' for Inactive)
REMARK    1  A    between atoms: C1_1  and  C2_2
REMARK    2  A    between atoms: C2_2  and  C3_4
REMARK    3  A    between atoms: C2_2  and  C10_14
REMARK    4  A    between atoms: C3_4  and  C4_5
REMARK    5  A    between atoms: C4_5  and  C5_6
REMARK    6  A    between atoms: C5_6  and  C6_7
REMARK    7  A    between atoms: C5_6  and  C7_9
REMARK    8  A    between atoms: C5_6  and  O2_12
REMARK    9  A    between atoms: C7_9  and  C8_10
REMARK   10  A    between atoms: C7_9  and  C9_11
REMARK   11  A    between atoms: O2_12  and  O3_13
REMARK   12  A    between atoms: C14_20  and  C28_38
REMARK   13  A    between atoms: C22_30  and  C27_37
REMARK   14  A    between atoms: C25_33  and  O4_36
REMARK                            x       y       z     vdW  Elec       q    Type
REMARK                         _______ _______ _______ _____ _____    ______ ____
ROOT
ATOM      3  C   UNL     1      46.508  17.965  19.708  0.00  0.00    -0.002 C 
ATOM      4  C   UNL     1      45.205  17.411  20.336  0.00  0.00    +0.007 C 
ATOM      5  C   UNL     1      45.169  15.894  20.007  0.00  0.00    +0.010 C 
ATOM      6  C   UNL     1      46.052  15.793  18.758  0.00  0.00    -0.006 C 
ATOM      7  C   UNL     1      46.641  14.423  18.475  0.00  0.00    +0.009 C 
ATOM      8  C   UNL     1      45.514  13.442  18.133  0.00  0.00    +0.058 C 
ATOM      9  C   UNL     1      46.111  12.139  17.687  0.00  0.00    -0.061 C 
ATOM     10  C   UNL     1      47.292  12.047  17.149  0.00  0.00    -0.092 C 
ATOM     11  C   UNL     1      48.235  13.232  16.938  0.00  0.00    -0.009 C 
ATOM     12  C   UNL     1      49.465  13.086  17.835  0.00  0.00    +0.024 C 
ATOM     13  C   UNL     1      48.718  13.220  15.485  0.00  0.00    +0.031 C 
ATOM     14  C   UNL     1      49.369  11.870  15.177  0.00  0.00    +0.032 C 
ATOM     15  C   UNL     1      48.331  10.755  15.314  0.00  0.00    +0.163 C 
ATOM     18  C   UNL     1      47.786  10.672  16.730  0.00  0.00    +0.026 C 
ATOM     19  C   UNL     1      47.571  14.561  17.254  0.00  0.00    -0.004 C 
ATOM     20  C   UNL     1      48.636  15.636  17.449  0.00  0.00    +0.011 C 
ATOM     21  C   UNL     1      48.017  16.984  17.851  0.00  0.00    +0.023 C 
ATOM     22  C   UNL     1      47.221  16.751  19.120  0.00  0.00    -0.056 C 
ATOM     23  C   UNL     1      48.111  16.105  20.185  0.00  0.00    +0.021 C 
ENDROOT
BRANCH   3   2
ATOM      1  C   UNL     1      44.662  19.059  18.429  0.00  0.00    +0.017 C 
ATOM      2  C   UNL     1      46.179  18.971  18.604  0.00  0.00    -0.009 C 
BRANCH   2  24
ATOM     24  C   UNL     1      46.728  20.347  18.988  0.00  0.00    +0.022 C 
BRANCH  24  25
ATOM     25  C   UNL     1      45.570  21.337  19.129  0.00  0.00    +0.073 C 
BRANCH  25  26
ATOM     26  C   UNL     1      45.456  21.785  20.587  0.00  0.00    +0.055 C 
BRANCH  26  30
ATOM     30  C   UNL     1      44.631  23.071  20.664  0.00  0.00    -0.013 C 
ATOM     31  C   UNL     1      43.595  23.080  19.537  0.00  0.00    +0.027 C 
ATOM     32  C   UNL     1      45.556  24.280  20.516  0.00  0.00    +0.031 C 
ENDBRANCH  26  30
BRANCH  26  33
ATOM     33  C   UNL     1      46.832  22.037  21.145  0.00  0.00    +0.441 C 
ATOM     34  O   UNL     1      47.015  22.005  22.338  0.00  0.00    -0.441 OA
ENDBRANCH  26  33
BRANCH  26  27
ATOM     27  O   UNL     1      44.814  20.761  21.350  0.00  0.00    -0.189 OA
BRANCH  27  28
ATOM     28  O   UNL     1      44.056  21.262  22.504  0.00  0.00    -0.405 OA
ATOM     29  H   UNL     1      43.103  21.108  22.446  0.00  0.00    +0.395 HD
ENDBRANCH  27  28
ENDBRANCH  26  27
ENDBRANCH  25  26
ENDBRANCH  24  25
ENDBRANCH   2  24
ENDBRANCH   3   2
BRANCH  15  16
ATOM     16  O   UNL     1      47.219  11.031  14.460  0.00  0.00    -0.565 OA
ATOM     17  H   UNL     1      46.638  10.273  14.313  0.00  0.00    +0.374 HD
ENDBRANCH  15  16
TORSDOF 9
ENDMDL
MODEL 9
REMARK VINA RESULT:      -5.0      3.613      6.782
REMARK  Name = ZINC95486349
REMARK  14 active torsions:
REMARK  status: ('A' for Active; 'I' for Inactive)
REMARK    1  A    between atoms: C1_1  and  C2_2
REMARK    2  A    between atoms: C2_2  and  C3_4
REMARK    3  A    between atoms: C2_2  and  C10_14
REMARK    4  A    between atoms: C3_4  and  C4_5
REMARK    5  A    between atoms: C4_5  and  C5_6
REMARK    6  A    between atoms: C5_6  and  C6_7
REMARK    7  A    between atoms: C5_6  and  C7_9
REMARK    8  A    between atoms: C5_6  and  O2_12
REMARK    9  A    between atoms: C7_9  and  C8_10
REMARK   10  A    between atoms: C7_9  and  C9_11
REMARK   11  A    between atoms: O2_12  and  O3_13
REMARK   12  A    between atoms: C14_20  and  C28_38
REMARK   13  A    between atoms: C22_30  and  C27_37
REMARK   14  A    between atoms: C25_33  and  O4_36
REMARK                            x       y       z     vdW  Elec       q    Type
REMARK                         _______ _______ _______ _____ _____    ______ ____
ROOT
ATOM      3  C   UNL     1      51.213  18.594  18.432  0.00  0.00    -0.002 C 
ATOM      4  C   UNL     1      51.320  20.093  18.059  0.00  0.00    +0.007 C 
ATOM      5  C   UNL     1      50.041  20.777  18.614  0.00  0.00    +0.010 C 
ATOM      6  C   UNL     1      49.043  19.617  18.701  0.00  0.00    -0.006 C 
ATOM      7  C   UNL     1      47.884  19.814  19.661  0.00  0.00    +0.009 C 
ATOM      8  C   UNL     1      46.988  20.950  19.156  0.00  0.00    +0.058 C 
ATOM      9  C   UNL     1      45.757  21.027  20.010  0.00  0.00    -0.061 C 
ATOM     10  C   UNL     1      45.275  20.004  20.653  0.00  0.00    -0.092 C 
ATOM     11  C   UNL     1      45.912  18.614  20.658  0.00  0.00    -0.009 C 
ATOM     12  C   UNL     1      46.437  18.285  22.057  0.00  0.00    +0.024 C 
ATOM     13  C   UNL     1      44.836  17.580  20.314  0.00  0.00    +0.031 C 
ATOM     14  C   UNL     1      43.671  17.713  21.297  0.00  0.00    +0.032 C 
ATOM     15  C   UNL     1      43.030  19.094  21.153  0.00  0.00    +0.163 C 
ATOM     18  C   UNL     1      44.016  20.202  21.481  0.00  0.00    +0.026 C 
ATOM     19  C   UNL     1      47.069  18.506  19.680  0.00  0.00    -0.004 C 
ATOM     20  C   UNL     1      47.924  17.290  20.023  0.00  0.00    +0.011 C 
ATOM     21  C   UNL     1      49.155  17.182  19.110  0.00  0.00    +0.023 C 
ATOM     22  C   UNL     1      49.936  18.474  19.259  0.00  0.00    -0.056 C 
ATOM     23  C   UNL     1      50.248  18.730  20.735  0.00  0.00    +0.021 C 
ENDROOT
BRANCH   3   2
ATOM      1  C   UNL     1      51.607  18.542  15.965  0.00  0.00    +0.017 C 
ATOM      2  C   UNL     1      51.107  17.739  17.168  0.00  0.00    -0.009 C 
BRANCH   2  24
ATOM     24  C   UNL     1      51.963  16.480  17.331  0.00  0.00    +0.022 C 
BRANCH  24  25
ATOM     25  C   UNL     1      51.381  15.354  16.475  0.00  0.00    +0.073 C 
BRANCH  25  26
ATOM     26  C   UNL     1      51.043  14.158  17.367  0.00  0.00    +0.055 C 
BRANCH  26  30
ATOM     30  C   UNL     1      51.718  14.330  18.730  0.00  0.00    -0.013 C 
ATOM     31  C   UNL     1      52.839  13.299  18.877  0.00  0.00    +0.027 C 
ATOM     32  C   UNL     1      50.686  14.124  19.840  0.00  0.00    +0.031 C 
ENDBRANCH  26  30
BRANCH  26  33
ATOM     33  C   UNL     1      51.537  12.891  16.719  0.00  0.00    +0.441 C 
ATOM     34  O   UNL     1      50.789  12.229  16.040  0.00  0.00    -0.441 OA
ENDBRANCH  26  33
BRANCH  26  27
ATOM     27  O   UNL     1      49.627  14.081  17.544  0.00  0.00    -0.189 OA
BRANCH  27  28
ATOM     28  O   UNL     1      48.854  14.557  16.388  0.00  0.00    -0.405 OA
ATOM     29  H   UNL     1      48.009  14.102  16.265  0.00  0.00    +0.395 HD
ENDBRANCH  27  28
ENDBRANCH  26  27
ENDBRANCH  25  26
ENDBRANCH  24  25
ENDBRANCH   2  24
ENDBRANCH   3   2
BRANCH  15  16
ATOM     16  O   UNL     1      42.624  19.292  19.797  0.00  0.00    -0.565 OA
ATOM     17  H   UNL     1      41.749  18.934  19.593  0.00  0.00    +0.374 HD
ENDBRANCH  15  16
TORSDOF 9
ENDMDL
