MODEL 1
REMARK VINA RESULT:      -7.2      0.000      0.000
REMARK  Name = ZINC40422816
REMARK  11 active torsions:
REMARK  status: ('A' for Active; 'I' for Inactive)
REMARK    1  A    between atoms: C3_3  and  O11_37
REMARK    2  A    between atoms: C4_4  and  O10_36
REMARK    3  A    between atoms: C6_6  and  C7_7
REMARK    4  A    between atoms: C11_12  and  O9_35
REMARK    5  A    between atoms: C13_14  and  O3_18
REMARK    6  A    between atoms: O3_18  and  C16_19
REMARK    7  A    between atoms: C17_21  and  O8_34
REMARK    8  A    between atoms: C18_23  and  O7_33
REMARK    9  A    between atoms: C19_25  and  O6_32
REMARK   10  A    between atoms: C20_27  and  C21_30
REMARK   11  A    between atoms: C21_30  and  O5_31
REMARK                            x       y       z     vdW  Elec       q    Type
REMARK                         _______ _______ _______ _____ _____    ______ ____
ROOT
ATOM     11  C   UNL     1      48.050  20.228  19.255  0.00  0.00    +0.205 A 
ATOM     12  C   UNL     1      49.251  20.792  18.954  0.00  0.00    -0.140 A 
ATOM     13  C   UNL     1      50.279  19.989  18.405  0.00  0.00    +0.425 A 
ATOM     14  C   UNL     1      49.985  18.563  18.189  0.00  0.00    -0.285 A 
ATOM     15  C   UNL     1      50.943  17.695  17.652  0.00  0.00    +0.243 A 
ATOM     18  C   UNL     1      50.626  16.361  17.465  0.00  0.00    -0.095 A 
ATOM     19  C   UNL     1      49.366  15.888  17.809  0.00  0.00    +0.207 A 
ATOM     36  C   UNL     1      48.411  16.742  18.342  0.00  0.00    -0.028 A 
ATOM     37  C   UNL     1      48.710  18.081  18.536  0.00  0.00    +0.202 A 
ATOM     38  O   UNL     1      51.369  20.461  18.122  0.00  0.00    -0.454 OA
ATOM     39  O   UNL     1      47.795  18.925  19.059  0.00  0.00    -0.217 OA
ENDROOT
BRANCH  11  10
ATOM      1  C   UNL     1      47.216  21.775  21.017  0.00  0.00    +0.074 A 
ATOM      2  C   UNL     1      46.224  22.572  21.548  0.00  0.00    +0.016 A 
ATOM      3  C   UNL     1      45.001  22.686  20.904  0.00  0.00    +0.109 A 
ATOM      6  C   UNL     1      44.769  21.997  19.714  0.00  0.00    +0.079 A 
ATOM      9  C   UNL     1      45.758  21.196  19.176  0.00  0.00    +0.056 A 
ATOM     10  C   UNL     1      46.990  21.080  19.826  0.00  0.00    -0.065 A 
BRANCH   3   4
ATOM      4  O   UNL     1      44.027  23.473  21.432  0.00  0.00    -0.485 OA
ATOM      5  H   UNL     1      44.213  24.420  21.377  0.00  0.00    +0.394 HD
ENDBRANCH   3   4
BRANCH   6   7
ATOM      7  O   UNL     1      43.569  22.111  19.085  0.00  0.00    -0.483 OA
ATOM      8  H   UNL     1      43.538  21.683  18.219  0.00  0.00    +0.392 HD
ENDBRANCH   6   7
ENDBRANCH  11  10
BRANCH  15  16
ATOM     16  O   UNL     1      52.173  18.158  17.316  0.00  0.00    -0.473 OA
ATOM     17  H   UNL     1      52.598  18.684  18.008  0.00  0.00    +0.406 HD
ENDBRANCH  15  16
BRANCH  19  20
ATOM     20  O   UNL     1      49.065  14.578  17.621  0.00  0.00    -0.285 OA
BRANCH  20  21
ATOM     21  C   UNL     1      49.365  14.021  16.340  0.00  0.00    +0.306 C 
ATOM     22  C   UNL     1      48.107  13.369  15.759  0.00  0.00    +0.151 C 
ATOM     25  C   UNL     1      48.452  12.722  14.414  0.00  0.00    +0.166 C 
ATOM     28  C   UNL     1      49.588  11.714  14.620  0.00  0.00    +0.172 C 
ATOM     31  C   UNL     1      50.787  12.430  15.246  0.00  0.00    +0.193 C 
ATOM     35  O   UNL     1      50.391  13.036  16.477  0.00  0.00    -0.371 OA
BRANCH  22  23
ATOM     23  O   UNL     1      47.099  14.363  15.568  0.00  0.00    -0.552 OA
ATOM     24  H   UNL     1      46.407  14.107  14.943  0.00  0.00    +0.396 HD
ENDBRANCH  22  23
BRANCH  25  26
ATOM     26  O   UNL     1      47.301  12.049  13.898  0.00  0.00    -0.553 OA
ATOM     27  H   UNL     1      47.397  11.088  13.850  0.00  0.00    +0.397 HD
ENDBRANCH  25  26
BRANCH  28  29
ATOM     29  O   UNL     1      49.966  11.157  13.360  0.00  0.00    -0.548 OA
ATOM     30  H   UNL     1      50.470  10.334  13.430  0.00  0.00    +0.396 HD
ENDBRANCH  28  29
BRANCH  31  32
ATOM     32  C   UNL     1      51.904  11.419  15.510  0.00  0.00    +0.229 C 
BRANCH  32  33
ATOM     33  O   UNL     1      52.655  11.214  14.312  0.00  0.00    -0.567 OA
ATOM     34  H   UNL     1      52.581  11.937  13.674  0.00  0.00    +0.386 HD
ENDBRANCH  32  33
ENDBRANCH  31  32
ENDBRANCH  20  21
ENDBRANCH  19  20
TORSDOF 11
ENDMDL
MODEL 2
REMARK VINA RESULT:      -7.0      3.366      6.116
REMARK  Name = ZINC40422816
REMARK  11 active torsions:
REMARK  status: ('A' for Active; 'I' for Inactive)
REMARK    1  A    between atoms: C3_3  and  O11_37
REMARK    2  A    between atoms: C4_4  and  O10_36
REMARK    3  A    between atoms: C6_6  and  C7_7
REMARK    4  A    between atoms: C11_12  and  O9_35
REMARK    5  A    between atoms: C13_14  and  O3_18
REMARK    6  A    between atoms: O3_18  and  C16_19
REMARK    7  A    between atoms: C17_21  and  O8_34
REMARK    8  A    between atoms: C18_23  and  O7_33
REMARK    9  A    between atoms: C19_25  and  O6_32
REMARK   10  A    between atoms: C20_27  and  C21_30
REMARK   11  A    between atoms: C21_30  and  O5_31
REMARK                            x       y       z     vdW  Elec       q    Type
REMARK                         _______ _______ _______ _____ _____    ______ ____
ROOT
ATOM     11  C   UNL     1      44.119  19.466  20.154  0.00  0.00    +0.205 A 
ATOM     12  C   UNL     1      44.022  18.249  20.754  0.00  0.00    -0.140 A 
ATOM     13  C   UNL     1      45.198  17.590  21.188  0.00  0.00    +0.425 A 
ATOM     14  C   UNL     1      46.482  18.273  20.958  0.00  0.00    -0.285 A 
ATOM     15  C   UNL     1      47.694  17.695  21.353  0.00  0.00    +0.243 A 
ATOM     18  C   UNL     1      48.879  18.369  21.119  0.00  0.00    -0.095 A 
ATOM     19  C   UNL     1      48.864  19.611  20.496  0.00  0.00    +0.207 A 
ATOM     36  C   UNL     1      47.667  20.191  20.102  0.00  0.00    -0.028 A 
ATOM     37  C   UNL     1      46.470  19.530  20.328  0.00  0.00    +0.202 A 
ATOM     38  O   UNL     1      45.149  16.498  21.730  0.00  0.00    -0.454 OA
ATOM     39  O   UNL     1      45.296  20.076  19.945  0.00  0.00    -0.217 OA
ENDROOT
BRANCH  11  10
ATOM      1  C   UNL     1      41.656  19.474  19.794  0.00  0.00    +0.074 A 
ATOM      2  C   UNL     1      40.502  20.103  19.378  0.00  0.00    +0.016 A 
ATOM      3  C   UNL     1      40.555  21.395  18.876  0.00  0.00    +0.109 A 
ATOM      6  C   UNL     1      41.776  22.064  18.789  0.00  0.00    +0.079 A 
ATOM      9  C   UNL     1      42.936  21.439  19.203  0.00  0.00    +0.056 A 
ATOM     10  C   UNL     1      42.883  20.137  19.710  0.00  0.00    -0.065 A 
BRANCH   3   4
ATOM      4  O   UNL     1      39.415  22.011  18.467  0.00  0.00    -0.485 OA
ATOM      5  H   UNL     1      39.413  22.968  18.606  0.00  0.00    +0.394 HD
ENDBRANCH   3   4
BRANCH   6   7
ATOM      7  O   UNL     1      41.823  23.330  18.296  0.00  0.00    -0.483 OA
ATOM      8  H   UNL     1      41.748  23.379  17.333  0.00  0.00    +0.392 HD
ENDBRANCH   6   7
ENDBRANCH  11  10
BRANCH  15  16
ATOM     16  O   UNL     1      47.707  16.482  21.962  0.00  0.00    -0.473 OA
ATOM     17  H   UNL     1      48.584  16.203  22.263  0.00  0.00    +0.406 HD
ENDBRANCH  15  16
BRANCH  19  20
ATOM     20  O   UNL     1      50.032  20.265  20.271  0.00  0.00    -0.285 OA
BRANCH  20  21
ATOM     21  C   UNL     1      50.906  19.713  19.285  0.00  0.00    +0.306 C 
ATOM     22  C   UNL     1      51.248  20.785  18.246  0.00  0.00    +0.151 C 
ATOM     25  C   UNL     1      52.135  20.169  17.161  0.00  0.00    +0.166 C 
ATOM     28  C   UNL     1      51.409  18.970  16.542  0.00  0.00    +0.172 C 
ATOM     31  C   UNL     1      51.061  17.969  17.646  0.00  0.00    +0.193 C 
ATOM     35  O   UNL     1      50.261  18.613  18.638  0.00  0.00    -0.371 OA
BRANCH  22  23
ATOM     23  O   UNL     1      51.943  21.860  18.881  0.00  0.00    -0.552 OA
ATOM     24  H   UNL     1      51.560  22.731  18.711  0.00  0.00    +0.396 HD
ENDBRANCH  22  23
BRANCH  25  26
ATOM     26  O   UNL     1      52.400  21.144  16.150  0.00  0.00    -0.553 OA
ATOM     27  H   UNL     1      52.956  20.820  15.428  0.00  0.00    +0.397 HD
ENDBRANCH  25  26
BRANCH  28  29
ATOM     29  O   UNL     1      52.257  18.345  15.577  0.00  0.00    -0.548 OA
ATOM     30  H   UNL     1      52.207  17.379  15.577  0.00  0.00    +0.396 HD
ENDBRANCH  28  29
BRANCH  31  32
ATOM     32  C   UNL     1      50.283  16.797  17.045  0.00  0.00    +0.229 C 
BRANCH  32  33
ATOM     33  O   UNL     1      51.197  15.777  16.638  0.00  0.00    -0.567 OA
ATOM     34  H   UNL     1      52.116  15.951  16.885  0.00  0.00    +0.386 HD
ENDBRANCH  32  33
ENDBRANCH  31  32
ENDBRANCH  20  21
ENDBRANCH  19  20
TORSDOF 11
ENDMDL
MODEL 3
REMARK VINA RESULT:      -7.0      3.890      6.396
REMARK  Name = ZINC40422816
REMARK  11 active torsions:
REMARK  status: ('A' for Active; 'I' for Inactive)
REMARK    1  A    between atoms: C3_3  and  O11_37
REMARK    2  A    between atoms: C4_4  and  O10_36
REMARK    3  A    between atoms: C6_6  and  C7_7
REMARK    4  A    between atoms: C11_12  and  O9_35
REMARK    5  A    between atoms: C13_14  and  O3_18
REMARK    6  A    between atoms: O3_18  and  C16_19
REMARK    7  A    between atoms: C17_21  and  O8_34
REMARK    8  A    between atoms: C18_23  and  O7_33
REMARK    9  A    between atoms: C19_25  and  O6_32
REMARK   10  A    between atoms: C20_27  and  C21_30
REMARK   11  A    between atoms: C21_30  and  O5_31
REMARK                            x       y       z     vdW  Elec       q    Type
REMARK                         _______ _______ _______ _____ _____    ______ ____
ROOT
ATOM     11  C   UNL     1      44.067  18.734  20.232  0.00  0.00    +0.205 A 
ATOM     12  C   UNL     1      43.659  17.812  21.145  0.00  0.00    -0.140 A 
ATOM     13  C   UNL     1      44.587  16.869  21.648  0.00  0.00    +0.425 A 
ATOM     14  C   UNL     1      45.968  16.942  21.142  0.00  0.00    -0.285 A 
ATOM     15  C   UNL     1      46.952  16.049  21.582  0.00  0.00    +0.243 A 
ATOM     18  C   UNL     1      48.238  16.151  21.082  0.00  0.00    -0.095 A 
ATOM     19  C   UNL     1      48.549  17.133  20.149  0.00  0.00    +0.207 A 
ATOM     36  C   UNL     1      47.579  18.021  19.708  0.00  0.00    -0.028 A 
ATOM     37  C   UNL     1      46.286  17.934  20.198  0.00  0.00    +0.202 A 
ATOM     38  O   UNL     1      44.256  16.028  22.467  0.00  0.00    -0.454 OA
ATOM     39  O   UNL     1      45.328  18.787  19.774  0.00  0.00    -0.217 OA
ENDROOT
BRANCH  11  10
ATOM      1  C   UNL     1      41.808  19.283  19.343  0.00  0.00    +0.074 A 
ATOM      2  C   UNL     1      40.892  20.196  18.866  0.00  0.00    +0.016 A 
ATOM      3  C   UNL     1      41.233  21.536  18.759  0.00  0.00    +0.109 A 
ATOM      6  C   UNL     1      42.505  21.967  19.134  0.00  0.00    +0.079 A 
ATOM      9  C   UNL     1      43.428  21.059  19.612  0.00  0.00    +0.056 A 
ATOM     10  C   UNL     1      43.085  19.708  19.720  0.00  0.00    -0.065 A 
BRANCH   3   4
ATOM      4  O   UNL     1      40.326  22.431  18.287  0.00  0.00    -0.485 OA
ATOM      5  H   UNL     1      40.283  22.477  17.322  0.00  0.00    +0.394 HD
ENDBRANCH   3   4
BRANCH   6   7
ATOM      7  O   UNL     1      42.836  23.282  19.027  0.00  0.00    -0.483 OA
ATOM      8  H   UNL     1      42.078  23.882  19.069  0.00  0.00    +0.392 HD
ENDBRANCH   6   7
ENDBRANCH  11  10
BRANCH  15  16
ATOM     16  O   UNL     1      46.648  15.092  22.494  0.00  0.00    -0.473 OA
ATOM     17  H   UNL     1      46.941  15.298  23.393  0.00  0.00    +0.406 HD
ENDBRANCH  15  16
BRANCH  19  20
ATOM     20  O   UNL     1      49.813  17.225  19.666  0.00  0.00    -0.285 OA
BRANCH  20  21
ATOM     21  C   UNL     1      50.086  18.295  18.759  0.00  0.00    +0.306 C 
ATOM     22  C   UNL     1      50.936  17.777  17.596  0.00  0.00    +0.151 C 
ATOM     25  C   UNL     1      51.274  18.942  16.661  0.00  0.00    +0.166 C 
ATOM     28  C   UNL     1      51.987  20.035  17.462  0.00  0.00    +0.172 C 
ATOM     31  C   UNL     1      51.096  20.466  18.629  0.00  0.00    +0.193 C 
ATOM     35  O   UNL     1      50.795  19.331  19.442  0.00  0.00    -0.371 OA
BRANCH  22  23
ATOM     23  O   UNL     1      50.207  16.781  16.877  0.00  0.00    -0.552 OA
ATOM     24  H   UNL     1      49.748  17.116  16.095  0.00  0.00    +0.396 HD
ENDBRANCH  22  23
BRANCH  25  26
ATOM     26  O   UNL     1      52.128  18.481  15.612  0.00  0.00    -0.553 OA
ATOM     27  H   UNL     1      51.765  18.611  14.725  0.00  0.00    +0.397 HD
ENDBRANCH  25  26
BRANCH  28  29
ATOM     29  O   UNL     1      52.243  21.157  16.615  0.00  0.00    -0.548 OA
ATOM     30  H   UNL     1      51.979  22.007  16.996  0.00  0.00    +0.396 HD
ENDBRANCH  28  29
BRANCH  31  32
ATOM     32  C   UNL     1      51.827  21.516  19.469  0.00  0.00    +0.229 C 
BRANCH  32  33
ATOM     33  O   UNL     1      53.216  21.511  19.134  0.00  0.00    -0.567 OA
ATOM     34  H   UNL     1      53.785  21.146  19.826  0.00  0.00    +0.386 HD
ENDBRANCH  32  33
ENDBRANCH  31  32
ENDBRANCH  20  21
ENDBRANCH  19  20
TORSDOF 11
ENDMDL
MODEL 4
REMARK VINA RESULT:      -6.7      2.979     10.127
REMARK  Name = ZINC40422816
REMARK  11 active torsions:
REMARK  status: ('A' for Active; 'I' for Inactive)
REMARK    1  A    between atoms: C3_3  and  O11_37
REMARK    2  A    between atoms: C4_4  and  O10_36
REMARK    3  A    between atoms: C6_6  and  C7_7
REMARK    4  A    between atoms: C11_12  and  O9_35
REMARK    5  A    between atoms: C13_14  and  O3_18
REMARK    6  A    between atoms: O3_18  and  C16_19
REMARK    7  A    between atoms: C17_21  and  O8_34
REMARK    8  A    between atoms: C18_23  and  O7_33
REMARK    9  A    between atoms: C19_25  and  O6_32
REMARK   10  A    between atoms: C20_27  and  C21_30
REMARK   11  A    between atoms: C21_30  and  O5_31
REMARK                            x       y       z     vdW  Elec       q    Type
REMARK                         _______ _______ _______ _____ _____    ______ ____
ROOT
ATOM     11  C   UNL     1      48.159  13.307  15.782  0.00  0.00    +0.205 A 
ATOM     12  C   UNL     1      47.353  12.232  15.992  0.00  0.00    -0.140 A 
ATOM     13  C   UNL     1      46.360  12.290  17.000  0.00  0.00    +0.425 A 
ATOM     14  C   UNL     1      46.258  13.535  17.779  0.00  0.00    -0.285 A 
ATOM     15  C   UNL     1      45.307  13.681  18.796  0.00  0.00    +0.243 A 
ATOM     18  C   UNL     1      45.243  14.867  19.505  0.00  0.00    -0.095 A 
ATOM     19  C   UNL     1      46.118  15.906  19.208  0.00  0.00    +0.207 A 
ATOM     36  C   UNL     1      47.063  15.769  18.202  0.00  0.00    -0.028 A 
ATOM     37  C   UNL     1      47.141  14.588  17.481  0.00  0.00    +0.202 A 
ATOM     38  O   UNL     1      45.620  11.344  17.216  0.00  0.00    -0.454 OA
ATOM     39  O   UNL     1      48.059  14.435  16.503  0.00  0.00    -0.217 OA
ENDROOT
BRANCH  11  10
ATOM      1  C   UNL     1      50.541  13.297  15.062  0.00  0.00    +0.074 A 
ATOM      2  C   UNL     1      51.499  13.221  14.073  0.00  0.00    +0.016 A 
ATOM      3  C   UNL     1      51.123  13.076  12.747  0.00  0.00    +0.109 A 
ATOM      6  C   UNL     1      49.773  13.004  12.405  0.00  0.00    +0.079 A 
ATOM      9  C   UNL     1      48.807  13.080  13.390  0.00  0.00    +0.056 A 
ATOM     10  C   UNL     1      49.186  13.227  14.727  0.00  0.00    -0.065 A 
BRANCH   3   4
ATOM      4  O   UNL     1      52.072  13.002  11.777  0.00  0.00    -0.485 OA
ATOM      5  H   UNL     1      52.680  12.257  11.877  0.00  0.00    +0.394 HD
ENDBRANCH   3   4
BRANCH   6   7
ATOM      7  O   UNL     1      49.407  12.861  11.104  0.00  0.00    -0.483 OA
ATOM      8  H   UNL     1      49.423  11.947  10.789  0.00  0.00    +0.392 HD
ENDBRANCH   6   7
ENDBRANCH  11  10
BRANCH  15  16
ATOM     16  O   UNL     1      44.453  12.667  19.084  0.00  0.00    -0.473 OA
ATOM     17  H   UNL     1      44.642  12.219  19.921  0.00  0.00    +0.406 HD
ENDBRANCH  15  16
BRANCH  19  20
ATOM     20  O   UNL     1      46.047  17.066  19.909  0.00  0.00    -0.285 OA
BRANCH  20  21
ATOM     21  C   UNL     1      44.994  17.969  19.564  0.00  0.00    +0.306 C 
ATOM     22  C   UNL     1      45.583  19.350  19.262  0.00  0.00    +0.151 C 
ATOM     25  C   UNL     1      44.445  20.325  18.953  0.00  0.00    +0.166 C 
ATOM     28  C   UNL     1      43.473  20.353  20.137  0.00  0.00    +0.172 C 
ATOM     31  C   UNL     1      42.966  18.934  20.404  0.00  0.00    +0.193 C 
ATOM     35  O   UNL     1      44.077  18.071  20.654  0.00  0.00    -0.371 OA
BRANCH  22  23
ATOM     23  O   UNL     1      46.458  19.260  18.136  0.00  0.00    -0.552 OA
ATOM     24  H   UNL     1      47.333  19.645  18.285  0.00  0.00    +0.396 HD
ENDBRANCH  22  23
BRANCH  25  26
ATOM     26  O   UNL     1      44.980  21.634  18.741  0.00  0.00    -0.553 OA
ATOM     27  H   UNL     1      44.311  22.308  18.562  0.00  0.00    +0.397 HD
ENDBRANCH  25  26
BRANCH  28  29
ATOM     29  O   UNL     1      42.369  21.207  19.829  0.00  0.00    -0.548 OA
ATOM     30  H   UNL     1      41.861  21.487  20.604  0.00  0.00    +0.396 HD
ENDBRANCH  28  29
BRANCH  31  32
ATOM     32  C   UNL     1      42.042  18.943  21.623  0.00  0.00    +0.229 C 
BRANCH  32  33
ATOM     33  O   UNL     1      40.757  19.438  21.243  0.00  0.00    -0.567 OA
ATOM     34  H   UNL     1      40.616  19.472  20.287  0.00  0.00    +0.386 HD
ENDBRANCH  32  33
ENDBRANCH  31  32
ENDBRANCH  20  21
ENDBRANCH  19  20
TORSDOF 11
ENDMDL
MODEL 5
REMARK VINA RESULT:      -6.7      1.546      2.146
REMARK  Name = ZINC40422816
REMARK  11 active torsions:
REMARK  status: ('A' for Active; 'I' for Inactive)
REMARK    1  A    between atoms: C3_3  and  O11_37
REMARK    2  A    between atoms: C4_4  and  O10_36
REMARK    3  A    between atoms: C6_6  and  C7_7
REMARK    4  A    between atoms: C11_12  and  O9_35
REMARK    5  A    between atoms: C13_14  and  O3_18
REMARK    6  A    between atoms: O3_18  and  C16_19
REMARK    7  A    between atoms: C17_21  and  O8_34
REMARK    8  A    between atoms: C18_23  and  O7_33
REMARK    9  A    between atoms: C19_25  and  O6_32
REMARK   10  A    between atoms: C20_27  and  C21_30
REMARK   11  A    between atoms: C21_30  and  O5_31
REMARK                            x       y       z     vdW  Elec       q    Type
REMARK                         _______ _______ _______ _____ _____    ______ ____
ROOT
ATOM     11  C   UNL     1      48.343  20.361  19.201  0.00  0.00    +0.205 A 
ATOM     12  C   UNL     1      49.438  21.068  18.809  0.00  0.00    -0.140 A 
ATOM     13  C   UNL     1      50.534  20.389  18.225  0.00  0.00    +0.425 A 
ATOM     14  C   UNL     1      50.424  18.928  18.075  0.00  0.00    -0.285 A 
ATOM     15  C   UNL     1      51.460  18.176  17.509  0.00  0.00    +0.243 A 
ATOM     18  C   UNL     1      51.318  16.805  17.385  0.00  0.00    -0.095 A 
ATOM     19  C   UNL     1      50.154  16.182  17.820  0.00  0.00    +0.207 A 
ATOM     36  C   UNL     1      49.123  16.921  18.382  0.00  0.00    -0.028 A 
ATOM     37  C   UNL     1      49.248  18.295  18.513  0.00  0.00    +0.202 A 
ATOM     38  O   UNL     1      51.531  20.991  17.862  0.00  0.00    -0.454 OA
ATOM     39  O   UNL     1      48.258  19.029  19.064  0.00  0.00    -0.217 OA
ENDROOT
BRANCH  11  10
ATOM      1  C   UNL     1      47.361  21.705  21.052  0.00  0.00    +0.074 A 
ATOM      2  C   UNL     1      46.302  22.383  21.616  0.00  0.00    +0.016 A 
ATOM      3  C   UNL     1      45.086  22.453  20.952  0.00  0.00    +0.109 A 
ATOM      6  C   UNL     1      44.929  21.840  19.710  0.00  0.00    +0.079 A 
ATOM      9  C   UNL     1      45.986  21.158  19.139  0.00  0.00    +0.056 A 
ATOM     10  C   UNL     1      47.211  21.087  19.808  0.00  0.00    -0.065 A 
BRANCH   3   4
ATOM      4  O   UNL     1      44.045  23.123  21.513  0.00  0.00    -0.485 OA
ATOM      5  H   UNL     1      43.195  22.962  21.081  0.00  0.00    +0.394 HD
ENDBRANCH   3   4
BRANCH   6   7
ATOM      7  O   UNL     1      43.736  21.911  19.063  0.00  0.00    -0.483 OA
ATOM      8  H   UNL     1      43.810  21.892  18.099  0.00  0.00    +0.392 HD
ENDBRANCH   6   7
ENDBRANCH  11  10
BRANCH  15  16
ATOM     16  O   UNL     1      52.595  18.785  17.083  0.00  0.00    -0.473 OA
ATOM     17  H   UNL     1      52.566  19.751  17.135  0.00  0.00    +0.406 HD
ENDBRANCH  15  16
BRANCH  19  20
ATOM     20  O   UNL     1      50.024  14.837  17.693  0.00  0.00    -0.285 OA
BRANCH  20  21
ATOM     21  C   UNL     1      48.809  14.354  17.118  0.00  0.00    +0.306 C 
ATOM     22  C   UNL     1      48.180  13.314  18.050  0.00  0.00    +0.151 C 
ATOM     25  C   UNL     1      46.911  12.757  17.398  0.00  0.00    +0.166 C 
ATOM     28  C   UNL     1      47.267  12.172  16.028  0.00  0.00    +0.172 C 
ATOM     31  C   UNL     1      47.930  13.256  15.175  0.00  0.00    +0.193 C 
ATOM     35  O   UNL     1      49.087  13.752  15.852  0.00  0.00    -0.371 OA
BRANCH  22  23
ATOM     23  O   UNL     1      47.850  13.927  19.297  0.00  0.00    -0.552 OA
ATOM     24  H   UNL     1      48.502  14.572  19.603  0.00  0.00    +0.396 HD
ENDBRANCH  22  23
BRANCH  25  26
ATOM     26  O   UNL     1      46.357  11.734  18.228  0.00  0.00    -0.553 OA
ATOM     27  H   UNL     1      46.226  12.002  19.148  0.00  0.00    +0.397 HD
ENDBRANCH  25  26
BRANCH  28  29
ATOM     29  O   UNL     1      46.078  11.713  15.381  0.00  0.00    -0.548 OA
ATOM     30  H   UNL     1      46.221  11.383  14.483  0.00  0.00    +0.396 HD
ENDBRANCH  28  29
BRANCH  31  32
ATOM     32  C   UNL     1      48.344  12.663  13.827  0.00  0.00    +0.229 C 
BRANCH  32  33
ATOM     33  O   UNL     1      47.290  12.853  12.880  0.00  0.00    -0.567 OA
ATOM     34  H   UNL     1      47.435  13.593  12.274  0.00  0.00    +0.386 HD
ENDBRANCH  32  33
ENDBRANCH  31  32
ENDBRANCH  20  21
ENDBRANCH  19  20
TORSDOF 11
ENDMDL
MODEL 6
REMARK VINA RESULT:      -6.7      3.862      9.189
REMARK  Name = ZINC40422816
REMARK  11 active torsions:
REMARK  status: ('A' for Active; 'I' for Inactive)
REMARK    1  A    between atoms: C3_3  and  O11_37
REMARK    2  A    between atoms: C4_4  and  O10_36
REMARK    3  A    between atoms: C6_6  and  C7_7
REMARK    4  A    between atoms: C11_12  and  O9_35
REMARK    5  A    between atoms: C13_14  and  O3_18
REMARK    6  A    between atoms: O3_18  and  C16_19
REMARK    7  A    between atoms: C17_21  and  O8_34
REMARK    8  A    between atoms: C18_23  and  O7_33
REMARK    9  A    between atoms: C19_25  and  O6_32
REMARK   10  A    between atoms: C20_27  and  C21_30
REMARK   11  A    between atoms: C21_30  and  O5_31
REMARK                            x       y       z     vdW  Elec       q    Type
REMARK                         _______ _______ _______ _____ _____    ______ ____
ROOT
ATOM     11  C   UNL     1      49.051  17.836  18.479  0.00  0.00    +0.205 A 
ATOM     12  C   UNL     1      49.337  16.590  18.943  0.00  0.00    -0.140 A 
ATOM     13  C   UNL     1      48.360  15.879  19.681  0.00  0.00    +0.425 A 
ATOM     14  C   UNL     1      47.066  16.545  19.908  0.00  0.00    -0.285 A 
ATOM     15  C   UNL     1      46.042  15.918  20.628  0.00  0.00    +0.243 A 
ATOM     18  C   UNL     1      44.841  16.577  20.820  0.00  0.00    -0.095 A 
ATOM     19  C   UNL     1      44.655  17.852  20.301  0.00  0.00    +0.207 A 
ATOM     36  C   UNL     1      45.664  18.480  19.587  0.00  0.00    -0.028 A 
ATOM     37  C   UNL     1      46.874  17.835  19.385  0.00  0.00    +0.202 A 
ATOM     38  O   UNL     1      48.582  14.760  20.112  0.00  0.00    -0.454 OA
ATOM     39  O   UNL     1      47.870  18.434  18.698  0.00  0.00    -0.217 OA
ENDROOT
BRANCH  11  10
ATOM      1  C   UNL     1      50.337  19.908  17.979  0.00  0.00    +0.074 A 
ATOM      2  C   UNL     1      51.302  20.582  17.261  0.00  0.00    +0.016 A 
ATOM      3  C   UNL     1      52.022  19.926  16.274  0.00  0.00    +0.109 A 
ATOM      6  C   UNL     1      51.774  18.581  16.002  0.00  0.00    +0.079 A 
ATOM      9  C   UNL     1      50.808  17.899  16.717  0.00  0.00    +0.056 A 
ATOM     10  C   UNL     1      50.083  18.560  17.712  0.00  0.00    -0.065 A 
BRANCH   3   4
ATOM      4  O   UNL     1      52.972  20.595  15.569  0.00  0.00    -0.485 OA
ATOM      5  H   UNL     1      53.876  20.305  15.753  0.00  0.00    +0.394 HD
ENDBRANCH   3   4
BRANCH   6   7
ATOM      7  O   UNL     1      52.481  17.941  15.033  0.00  0.00    -0.483 OA
ATOM      8  H   UNL     1      53.216  18.460  14.676  0.00  0.00    +0.392 HD
ENDBRANCH   6   7
ENDBRANCH  11  10
BRANCH  15  16
ATOM     16  O   UNL     1      46.225  14.671  21.133  0.00  0.00    -0.473 OA
ATOM     17  H   UNL     1      46.978  14.199  20.750  0.00  0.00    +0.406 HD
ENDBRANCH  15  16
BRANCH  19  20
ATOM     20  O   UNL     1      43.472  18.490  20.495  0.00  0.00    -0.285 OA
BRANCH  20  21
ATOM     21  C   UNL     1      43.180  19.592  19.632  0.00  0.00    +0.306 C 
ATOM     22  C   UNL     1      43.416  20.905  20.383  0.00  0.00    +0.151 C 
ATOM     25  C   UNL     1      43.043  22.078  19.472  0.00  0.00    +0.166 C 
ATOM     28  C   UNL     1      41.588  21.919  19.021  0.00  0.00    +0.172 C 
ATOM     31  C   UNL     1      41.423  20.566  18.323  0.00  0.00    +0.193 C 
ATOM     35  O   UNL     1      41.816  19.521  19.214  0.00  0.00    -0.371 OA
BRANCH  22  23
ATOM     23  O   UNL     1      44.792  21.004  20.753  0.00  0.00    -0.552 OA
ATOM     24  H   UNL     1      45.067  21.893  21.013  0.00  0.00    +0.396 HD
ENDBRANCH  22  23
BRANCH  25  26
ATOM     26  O   UNL     1      43.192  23.306  20.189  0.00  0.00    -0.553 OA
ATOM     27  H   UNL     1      43.639  24.002  19.688  0.00  0.00    +0.397 HD
ENDBRANCH  25  26
BRANCH  28  29
ATOM     29  O   UNL     1      41.251  22.970  18.113  0.00  0.00    -0.548 OA
ATOM     30  H   UNL     1      41.371  22.739  17.182  0.00  0.00    +0.396 HD
ENDBRANCH  28  29
BRANCH  31  32
ATOM     32  C   UNL     1      39.959  20.373  17.923  0.00  0.00    +0.229 C 
BRANCH  32  33
ATOM     33  O   UNL     1      39.158  21.379  18.547  0.00  0.00    -0.567 OA
ATOM     34  H   UNL     1      39.402  22.283  18.304  0.00  0.00    +0.386 HD
ENDBRANCH  32  33
ENDBRANCH  31  32
ENDBRANCH  20  21
ENDBRANCH  19  20
TORSDOF 11
ENDMDL
MODEL 7
REMARK VINA RESULT:      -6.7      2.640     10.325
REMARK  Name = ZINC40422816
REMARK  11 active torsions:
REMARK  status: ('A' for Active; 'I' for Inactive)
REMARK    1  A    between atoms: C3_3  and  O11_37
REMARK    2  A    between atoms: C4_4  and  O10_36
REMARK    3  A    between atoms: C6_6  and  C7_7
REMARK    4  A    between atoms: C11_12  and  O9_35
REMARK    5  A    between atoms: C13_14  and  O3_18
REMARK    6  A    between atoms: O3_18  and  C16_19
REMARK    7  A    between atoms: C17_21  and  O8_34
REMARK    8  A    between atoms: C18_23  and  O7_33
REMARK    9  A    between atoms: C19_25  and  O6_32
REMARK   10  A    between atoms: C20_27  and  C21_30
REMARK   11  A    between atoms: C21_30  and  O5_31
REMARK                            x       y       z     vdW  Elec       q    Type
REMARK                         _______ _______ _______ _____ _____    ______ ____
ROOT
ATOM     11  C   UNL     1      47.219  13.890  17.313  0.00  0.00    +0.205 A 
ATOM     12  C   UNL     1      46.543  13.225  18.288  0.00  0.00    -0.140 A 
ATOM     13  C   UNL     1      45.809  13.957  19.252  0.00  0.00    +0.425 A 
ATOM     14  C   UNL     1      45.823  15.425  19.143  0.00  0.00    -0.285 A 
ATOM     15  C   UNL     1      45.127  16.229  20.054  0.00  0.00    +0.243 A 
ATOM     18  C   UNL     1      45.165  17.604  19.916  0.00  0.00    -0.095 A 
ATOM     19  C   UNL     1      45.890  18.183  18.881  0.00  0.00    +0.207 A 
ATOM     36  C   UNL     1      46.582  17.393  17.975  0.00  0.00    -0.028 A 
ATOM     37  C   UNL     1      46.555  16.013  18.097  0.00  0.00    +0.202 A 
ATOM     38  O   UNL     1      45.191  13.393  20.141  0.00  0.00    -0.454 OA
ATOM     39  O   UNL     1      47.228  15.230  17.227  0.00  0.00    -0.217 OA
ENDROOT
BRANCH  11  10
ATOM      1  C   UNL     1      47.421  11.955  15.761  0.00  0.00    +0.074 A 
ATOM      2  C   UNL     1      48.131  11.228  14.830  0.00  0.00    +0.016 A 
ATOM      3  C   UNL     1      49.398  11.639  14.444  0.00  0.00    +0.109 A 
ATOM      6  C   UNL     1      49.960  12.790  14.994  0.00  0.00    +0.079 A 
ATOM      9  C   UNL     1      49.254  13.524  15.928  0.00  0.00    +0.056 A 
ATOM     10  C   UNL     1      47.977  13.110  16.317  0.00  0.00    -0.065 A 
BRANCH   3   4
ATOM      4  O   UNL     1      50.095  10.918  13.526  0.00  0.00    -0.485 OA
ATOM      5  H   UNL     1      50.987  10.676  13.810  0.00  0.00    +0.394 HD
ENDBRANCH   3   4
BRANCH   6   7
ATOM      7  O   UNL     1      51.202  13.190  14.613  0.00  0.00    -0.483 OA
ATOM      8  H   UNL     1      51.318  14.150  14.594  0.00  0.00    +0.392 HD
ENDBRANCH   6   7
ENDBRANCH  11  10
BRANCH  15  16
ATOM     16  O   UNL     1      44.418  15.663  21.063  0.00  0.00    -0.473 OA
ATOM     17  H   UNL     1      43.616  15.206  20.773  0.00  0.00    +0.406 HD
ENDBRANCH  15  16
BRANCH  19  20
ATOM     20  O   UNL     1      45.920  19.534  18.755  0.00  0.00    -0.285 OA
BRANCH  20  21
ATOM     21  C   UNL     1      45.297  20.297  19.790  0.00  0.00    +0.306 C 
ATOM     22  C   UNL     1      44.292  21.273  19.173  0.00  0.00    +0.151 C 
ATOM     25  C   UNL     1      43.674  22.128  20.283  0.00  0.00    +0.166 C 
ATOM     28  C   UNL     1      44.793  22.848  21.042  0.00  0.00    +0.172 C 
ATOM     31  C   UNL     1      45.778  21.810  21.587  0.00  0.00    +0.193 C 
ATOM     35  O   UNL     1      46.293  21.030  20.507  0.00  0.00    -0.371 OA
BRANCH  22  23
ATOM     23  O   UNL     1      43.265  20.540  18.503  0.00  0.00    -0.552 OA
ATOM     24  H   UNL     1      42.812  19.895  19.063  0.00  0.00    +0.396 HD
ENDBRANCH  22  23
BRANCH  25  26
ATOM     26  O   UNL     1      42.788  23.091  19.708  0.00  0.00    -0.553 OA
ATOM     27  H   UNL     1      41.910  22.742  19.500  0.00  0.00    +0.397 HD
ENDBRANCH  25  26
BRANCH  28  29
ATOM     29  O   UNL     1      44.233  23.592  22.125  0.00  0.00    -0.548 OA
ATOM     30  H   UNL     1      43.710  24.358  21.848  0.00  0.00    +0.396 HD
ENDBRANCH  28  29
BRANCH  31  32
ATOM     32  C   UNL     1      46.931  22.525  22.295  0.00  0.00    +0.229 C 
BRANCH  32  33
ATOM     33  O   UNL     1      46.932  23.906  21.930  0.00  0.00    -0.567 OA
ATOM     34  H   UNL     1      47.159  24.504  22.655  0.00  0.00    +0.386 HD
ENDBRANCH  32  33
ENDBRANCH  31  32
ENDBRANCH  20  21
ENDBRANCH  19  20
TORSDOF 11
ENDMDL
MODEL 8
REMARK VINA RESULT:      -6.5      2.708      4.143
REMARK  Name = ZINC40422816
REMARK  11 active torsions:
REMARK  status: ('A' for Active; 'I' for Inactive)
REMARK    1  A    between atoms: C3_3  and  O11_37
REMARK    2  A    between atoms: C4_4  and  O10_36
REMARK    3  A    between atoms: C6_6  and  C7_7
REMARK    4  A    between atoms: C11_12  and  O9_35
REMARK    5  A    between atoms: C13_14  and  O3_18
REMARK    6  A    between atoms: O3_18  and  C16_19
REMARK    7  A    between atoms: C17_21  and  O8_34
REMARK    8  A    between atoms: C18_23  and  O7_33
REMARK    9  A    between atoms: C19_25  and  O6_32
REMARK   10  A    between atoms: C20_27  and  C21_30
REMARK   11  A    between atoms: C21_30  and  O5_31
REMARK                            x       y       z     vdW  Elec       q    Type
REMARK                         _______ _______ _______ _____ _____    ______ ____
ROOT
ATOM     11  C   UNL     1      45.276  17.704  19.449  0.00  0.00    +0.205 A 
ATOM     12  C   UNL     1      44.929  17.139  20.637  0.00  0.00    -0.140 A 
ATOM     13  C   UNL     1      45.035  15.737  20.800  0.00  0.00    +0.425 A 
ATOM     14  C   UNL     1      45.522  14.956  19.651  0.00  0.00    -0.285 A 
ATOM     15  C   UNL     1      45.657  13.564  19.721  0.00  0.00    +0.243 A 
ATOM     18  C   UNL     1      46.119  12.867  18.619  0.00  0.00    -0.095 A 
ATOM     19  C   UNL     1      46.445  13.545  17.451  0.00  0.00    +0.207 A 
ATOM     36  C   UNL     1      46.314  14.924  17.373  0.00  0.00    -0.028 A 
ATOM     37  C   UNL     1      45.854  15.639  18.467  0.00  0.00    +0.202 A 
ATOM     38  O   UNL     1      44.732  15.196  21.851  0.00  0.00    -0.454 OA
ATOM     39  O   UNL     1      45.714  16.980  18.407  0.00  0.00    -0.217 OA
ENDROOT
BRANCH  11  10
ATOM      1  C   UNL     1      46.241  19.911  18.823  0.00  0.00    +0.074 A 
ATOM      2  C   UNL     1      46.129  21.278  18.684  0.00  0.00    +0.016 A 
ATOM      3  C   UNL     1      44.943  21.917  19.014  0.00  0.00    +0.109 A 
ATOM      6  C   UNL     1      43.858  21.181  19.488  0.00  0.00    +0.079 A 
ATOM      9  C   UNL     1      43.964  19.811  19.632  0.00  0.00    +0.056 A 
ATOM     10  C   UNL     1      45.159  19.166  19.299  0.00  0.00    -0.065 A 
BRANCH   3   4
ATOM      4  O   UNL     1      44.838  23.265  18.875  0.00  0.00    -0.485 OA
ATOM      5  H   UNL     1      44.389  23.703  19.611  0.00  0.00    +0.394 HD
ENDBRANCH   3   4
BRANCH   6   7
ATOM      7  O   UNL     1      42.698  21.811  19.812  0.00  0.00    -0.483 OA
ATOM      8  H   UNL     1      41.970  21.210  20.022  0.00  0.00    +0.392 HD
ENDBRANCH   6   7
ENDBRANCH  11  10
BRANCH  15  16
ATOM     16  O   UNL     1      45.339  12.903  20.863  0.00  0.00    -0.473 OA
ATOM     17  H   UNL     1      46.034  12.309  21.180  0.00  0.00    +0.406 HD
ENDBRANCH  15  16
BRANCH  19  20
ATOM     20  O   UNL     1      46.898  12.852  16.376  0.00  0.00    -0.285 OA
BRANCH  20  21
ATOM     21  C   UNL     1      48.106  13.313  15.767  0.00  0.00    +0.306 C 
ATOM     22  C   UNL     1      48.417  12.460  14.534  0.00  0.00    +0.151 C 
ATOM     25  C   UNL     1      49.743  12.922  13.924  0.00  0.00    +0.166 C 
ATOM     28  C   UNL     1      50.842  12.830  14.987  0.00  0.00    +0.172 C 
ATOM     31  C   UNL     1      50.437  13.669  16.202  0.00  0.00    +0.193 C 
ATOM     35  O   UNL     1      49.182  13.207  16.702  0.00  0.00    -0.371 OA
BRANCH  22  23
ATOM     23  O   UNL     1      47.369  12.609  13.574  0.00  0.00    -0.552 OA
ATOM     24  H   UNL     1      46.545  12.959  13.941  0.00  0.00    +0.396 HD
ENDBRANCH  22  23
BRANCH  25  26
ATOM     26  O   UNL     1      50.076  12.085  12.815  0.00  0.00    -0.553 OA
ATOM     27  H   UNL     1      50.183  11.152  13.046  0.00  0.00    +0.397 HD
ENDBRANCH  25  26
BRANCH  28  29
ATOM     29  O   UNL     1      52.069  13.326  14.450  0.00  0.00    -0.548 OA
ATOM     30  H   UNL     1      52.576  13.873  15.066  0.00  0.00    +0.396 HD
ENDBRANCH  28  29
BRANCH  31  32
ATOM     32  C   UNL     1      51.502  13.534  17.293  0.00  0.00    +0.229 C 
BRANCH  32  33
ATOM     33  O   UNL     1      52.172  12.279  17.152  0.00  0.00    -0.567 OA
ATOM     34  H   UNL     1      51.720  11.542  17.584  0.00  0.00    +0.386 HD
ENDBRANCH  32  33
ENDBRANCH  31  32
ENDBRANCH  20  21
ENDBRANCH  19  20
TORSDOF 11
ENDMDL
MODEL 9
REMARK VINA RESULT:      -6.5      1.901      9.414
REMARK  Name = ZINC40422816
REMARK  11 active torsions:
REMARK  status: ('A' for Active; 'I' for Inactive)
REMARK    1  A    between atoms: C3_3  and  O11_37
REMARK    2  A    between atoms: C4_4  and  O10_36
REMARK    3  A    between atoms: C6_6  and  C7_7
REMARK    4  A    between atoms: C11_12  and  O9_35
REMARK    5  A    between atoms: C13_14  and  O3_18
REMARK    6  A    between atoms: O3_18  and  C16_19
REMARK    7  A    between atoms: C17_21  and  O8_34
REMARK    8  A    between atoms: C18_23  and  O7_33
REMARK    9  A    between atoms: C19_25  and  O6_32
REMARK   10  A    between atoms: C20_27  and  C21_30
REMARK   11  A    between atoms: C21_30  and  O5_31
REMARK                            x       y       z     vdW  Elec       q    Type
REMARK                         _______ _______ _______ _____ _____    ______ ____
ROOT
ATOM     11  C   UNL     1      50.781  16.540  17.174  0.00  0.00    +0.205 A 
ATOM     12  C   UNL     1      51.639  17.367  16.517  0.00  0.00    -0.140 A 
ATOM     13  C   UNL     1      51.629  18.752  16.804  0.00  0.00    +0.425 A 
ATOM     14  C   UNL     1      50.671  19.228  17.817  0.00  0.00    -0.285 A 
ATOM     15  C   UNL     1      50.590  20.582  18.163  0.00  0.00    +0.243 A 
ATOM     18  C   UNL     1      49.677  20.988  19.119  0.00  0.00    -0.095 A 
ATOM     19  C   UNL     1      48.845  20.057  19.730  0.00  0.00    +0.207 A 
ATOM     36  C   UNL     1      48.919  18.713  19.392  0.00  0.00    -0.028 A 
ATOM     37  C   UNL     1      49.828  18.289  18.436  0.00  0.00    +0.202 A 
ATOM     38  O   UNL     1      52.384  19.524  16.234  0.00  0.00    -0.454 OA
ATOM     39  O   UNL     1      49.909  16.986  18.090  0.00  0.00    -0.217 OA
ENDROOT
BRANCH  11  10
ATOM      1  C   UNL     1      50.150  14.189  17.692  0.00  0.00    +0.074 A 
ATOM      2  C   UNL     1      50.175  12.842  17.396  0.00  0.00    +0.016 A 
ATOM      3  C   UNL     1      50.852  12.388  16.274  0.00  0.00    +0.109 A 
ATOM      6  C   UNL     1      51.509  13.290  15.438  0.00  0.00    +0.079 A 
ATOM      9  C   UNL     1      51.489  14.640  15.729  0.00  0.00    +0.056 A 
ATOM     10  C   UNL     1      50.807  15.099  16.860  0.00  0.00    -0.065 A 
BRANCH   3   4
ATOM      4  O   UNL     1      50.874  11.059  15.987  0.00  0.00    -0.485 OA
ATOM      5  H   UNL     1      50.044  10.722  15.623  0.00  0.00    +0.394 HD
ENDBRANCH   3   4
BRANCH   6   7
ATOM      7  O   UNL     1      52.171  12.841  14.339  0.00  0.00    -0.483 OA
ATOM      8  H   UNL     1      51.608  12.379  13.703  0.00  0.00    +0.392 HD
ENDBRANCH   6   7
ENDBRANCH  11  10
BRANCH  15  16
ATOM     16  O   UNL     1      51.404  21.490  17.567  0.00  0.00    -0.473 OA
ATOM     17  H   UNL     1      52.302  21.167  17.406  0.00  0.00    +0.406 HD
ENDBRANCH  15  16
BRANCH  19  20
ATOM     20  O   UNL     1      47.953  20.465  20.667  0.00  0.00    -0.285 OA
BRANCH  20  21
ATOM     21  C   UNL     1      46.799  21.169  20.202  0.00  0.00    +0.306 C 
ATOM     22  C   UNL     1      46.204  21.991  21.349  0.00  0.00    +0.151 C 
ATOM     25  C   UNL     1      44.935  22.693  20.859  0.00  0.00    +0.166 C 
ATOM     28  C   UNL     1      43.955  21.642  20.327  0.00  0.00    +0.172 C 
ATOM     31  C   UNL     1      44.638  20.835  19.219  0.00  0.00    +0.193 C 
ATOM     35  O   UNL     1      45.827  20.233  19.734  0.00  0.00    -0.371 OA
BRANCH  22  23
ATOM     23  O   UNL     1      47.155  22.965  21.782  0.00  0.00    -0.552 OA
ATOM     24  H   UNL     1      47.678  22.692  22.548  0.00  0.00    +0.396 HD
ENDBRANCH  22  23
BRANCH  25  26
ATOM     26  O   UNL     1      44.334  23.405  21.942  0.00  0.00    -0.553 OA
ATOM     27  H   UNL     1      44.706  24.286  22.089  0.00  0.00    +0.397 HD
ENDBRANCH  25  26
BRANCH  28  29
ATOM     29  O   UNL     1      42.797  22.293  19.801  0.00  0.00    -0.548 OA
ATOM     30  H   UNL     1      42.530  23.081  20.294  0.00  0.00    +0.396 HD
ENDBRANCH  28  29
BRANCH  31  32
ATOM     32  C   UNL     1      43.686  19.744  18.724  0.00  0.00    +0.229 C 
BRANCH  32  33
ATOM     33  O   UNL     1      42.646  20.337  17.944  0.00  0.00    -0.567 OA
ATOM     34  H   UNL     1      42.966  20.862  17.197  0.00  0.00    +0.386 HD
ENDBRANCH  32  33
ENDBRANCH  31  32
ENDBRANCH  20  21
ENDBRANCH  19  20
TORSDOF 11
ENDMDL
