MODEL 1
REMARK VINA RESULT:      -6.4      0.000      0.000
REMARK  Name = ZINC95486220
REMARK  10 active torsions:
REMARK  status: ('A' for Active; 'I' for Inactive)
REMARK    1  A    between atoms: C1_1  and  C2_2
REMARK    2  A    between atoms: C5_7  and  C27_38
REMARK    3  A    between atoms: N1_13  and  C12_16
REMARK    4  A    between atoms: C12_16  and  C13_17
REMARK    5  A    between atoms: C13_17  and  O2_18
REMARK    6  A    between atoms: O2_18  and  C14_19
REMARK    7  A    between atoms: C14_19  and  C15_21
REMARK    8  A    between atoms: C24_32  and  O4_34
REMARK    9  A    between atoms: O4_34  and  C25_35
REMARK   10  A    between atoms: C25_35  and  C26_37
REMARK                            x       y       z     vdW  Elec       q    Type
REMARK                         _______ _______ _______ _____ _____    ______ ____
ROOT
ATOM      1  C   UNL     1      48.594  17.658  17.133  0.00  0.00    +0.012 C 
ATOM      2  C   UNL     1      48.849  17.507  18.636  0.00  0.00    -0.001 C 
ATOM      3  C   UNL     1      47.509  17.296  19.343  0.00  0.00    +0.021 C 
ATOM      4  C   UNL     1      47.349  18.235  20.527  0.00  0.00    +0.026 C 
ATOM      5  C   UNL     1      46.018  17.995  21.248  0.00  0.00    -0.070 C 
ATOM      6  C   UNL     1      45.882  16.535  21.689  0.00  0.00    +0.063 C 
ATOM      7  C   UNL     1      45.959  18.918  22.479  0.00  0.00    +0.041 C 
ATOM      8  C   UNL     1      45.987  20.372  22.002  0.00  0.00    +0.003 C 
ATOM      9  C   UNL     1      47.283  20.633  21.236  0.00  0.00    +0.038 C 
ATOM     10  C   UNL     1      44.884  18.380  20.336  0.00  0.00    +0.534 C 
ATOM     11  O   UNL     1      43.799  17.865  20.493  0.00  0.00    -0.526 OA
ATOM     12  N   UNL     1      45.042  19.275  19.363  0.00  0.00    -0.600 N 
ATOM     19  C   UNL     1      46.280  19.956  19.049  0.00  0.00    +0.252 C 
ATOM     20  C   UNL     1      47.412  19.687  20.046  0.00  0.00    -0.039 C 
ATOM     21  C   UNL     1      48.725  19.931  19.306  0.00  0.00    +0.005 C 
ATOM     22  C   UNL     1      49.498  21.131  19.838  0.00  0.00    +0.030 C 
ATOM     23  C   UNL     1      50.921  20.699  20.220  0.00  0.00    +0.037 C 
ATOM     24  C   UNL     1      51.584  20.116  18.982  0.00  0.00    -0.140 C 
ATOM     25  C   UNL     1      50.761  19.081  18.224  0.00  0.00    +0.222 C 
ATOM     30  C   UNL     1      52.783  20.475  18.591  0.00  0.00    +0.029 C 
ATOM     31  C   UNL     1      50.786  19.561  21.245  0.00  0.00    +0.023 C 
ATOM     32  C   UNL     1      50.281  18.318  20.511  0.00  0.00    +0.028 C 
ATOM     33  C   UNL     1      49.610  18.700  19.191  0.00  0.00    -0.016 C 
ENDROOT
BRANCH  12  13
ATOM     13  C   UNL     1      43.867  19.593  18.545  0.00  0.00    +0.305 C 
BRANCH  13  14
ATOM     14  C   UNL     1      43.098  20.753  19.183  0.00  0.00    +0.192 C 
BRANCH  14  15
ATOM     15  O   UNL     1      41.872  20.956  18.478  0.00  0.00    -0.330 OA
BRANCH  15  16
ATOM     16  C   UNL     1      40.735  20.734  19.157  0.00  0.00    +0.457 C 
ATOM     17  C   UNL     1      39.452  21.388  18.712  0.00  0.00    +0.152 C 
ATOM     18  O   UNL     1      40.740  20.010  20.123  0.00  0.00    -0.518 OA
ENDBRANCH  15  16
ENDBRANCH  14  15
ENDBRANCH  13  14
ENDBRANCH  12  13
BRANCH  25  26
ATOM     26  O   UNL     1      51.562  17.938  17.933  0.00  0.00    -0.332 OA
BRANCH  26  27
ATOM     27  C   UNL     1      51.779  17.659  16.638  0.00  0.00    +0.456 C 
ATOM     28  C   UNL     1      51.896  18.779  15.636  0.00  0.00    +0.154 C 
ATOM     29  O   UNL     1      51.880  16.511  16.275  0.00  0.00    -0.509 OA
ENDBRANCH  26  27
ENDBRANCH  25  26
TORSDOF 6
ENDMDL
MODEL 2
REMARK VINA RESULT:      -6.4      2.293      7.180
REMARK  Name = ZINC95486220
REMARK  10 active torsions:
REMARK  status: ('A' for Active; 'I' for Inactive)
REMARK    1  A    between atoms: C1_1  and  C2_2
REMARK    2  A    between atoms: C5_7  and  C27_38
REMARK    3  A    between atoms: N1_13  and  C12_16
REMARK    4  A    between atoms: C12_16  and  C13_17
REMARK    5  A    between atoms: C13_17  and  O2_18
REMARK    6  A    between atoms: O2_18  and  C14_19
REMARK    7  A    between atoms: C14_19  and  C15_21
REMARK    8  A    between atoms: C24_32  and  O4_34
REMARK    9  A    between atoms: O4_34  and  C25_35
REMARK   10  A    between atoms: C25_35  and  C26_37
REMARK                            x       y       z     vdW  Elec       q    Type
REMARK                         _______ _______ _______ _____ _____    ______ ____
ROOT
ATOM      1  C   UNL     1      48.480  20.655  19.126  0.00  0.00    +0.012 C 
ATOM      2  C   UNL     1      48.405  19.483  20.109  0.00  0.00    -0.001 C 
ATOM      3  C   UNL     1      49.689  18.662  19.994  0.00  0.00    +0.021 C 
ATOM      4  C   UNL     1      49.393  17.180  19.830  0.00  0.00    +0.026 C 
ATOM      5  C   UNL     1      50.686  16.362  19.748  0.00  0.00    -0.070 C 
ATOM      6  C   UNL     1      51.575  16.606  20.970  0.00  0.00    +0.063 C 
ATOM      7  C   UNL     1      50.312  14.871  19.666  0.00  0.00    +0.041 C 
ATOM      8  C   UNL     1      49.517  14.636  18.380  0.00  0.00    +0.003 C 
ATOM      9  C   UNL     1      48.241  15.476  18.408  0.00  0.00    +0.038 C 
ATOM     10  C   UNL     1      51.418  16.718  18.482  0.00  0.00    +0.534 C 
ATOM     11  O   UNL     1      52.619  16.567  18.431  0.00  0.00    -0.526 OA
ATOM     12  N   UNL     1      50.779  17.192  17.414  0.00  0.00    -0.600 N 
ATOM     19  C   UNL     1      49.354  17.440  17.336  0.00  0.00    +0.252 C 
ATOM     20  C   UNL     1      48.568  16.958  18.559  0.00  0.00    -0.039 C 
ATOM     21  C   UNL     1      47.288  17.786  18.620  0.00  0.00    +0.005 C 
ATOM     22  C   UNL     1      46.030  16.964  18.373  0.00  0.00    +0.030 C 
ATOM     23  C   UNL     1      45.052  17.153  19.542  0.00  0.00    +0.037 C 
ATOM     24  C   UNL     1      44.733  18.635  19.654  0.00  0.00    -0.140 C 
ATOM     25  C   UNL     1      45.939  19.568  19.645  0.00  0.00    +0.222 C 
ATOM     30  C   UNL     1      43.505  19.085  19.753  0.00  0.00    +0.029 C 
ATOM     31  C   UNL     1      45.799  16.749  20.823  0.00  0.00    +0.023 C 
ATOM     32  C   UNL     1      46.841  17.826  21.125  0.00  0.00    +0.028 C 
ATOM     33  C   UNL     1      47.161  18.641  19.872  0.00  0.00    -0.016 C 
ENDROOT
BRANCH  12  13
ATOM     13  C   UNL     1      51.585  17.488  16.225  0.00  0.00    +0.305 C 
BRANCH  13  14
ATOM     14  C   UNL     1      51.607  18.998  15.984  0.00  0.00    +0.192 C 
BRANCH  14  15
ATOM     15  O   UNL     1      52.421  19.627  16.975  0.00  0.00    -0.330 OA
BRANCH  15  16
ATOM     16  C   UNL     1      51.914  20.712  17.583  0.00  0.00    +0.457 C 
ATOM     17  C   UNL     1      52.274  21.010  19.015  0.00  0.00    +0.152 C 
ATOM     18  O   UNL     1      51.171  21.448  16.981  0.00  0.00    -0.518 OA
ENDBRANCH  15  16
ENDBRANCH  14  15
ENDBRANCH  13  14
ENDBRANCH  12  13
BRANCH  25  26
ATOM     26  O   UNL     1      45.832  20.515  20.704  0.00  0.00    -0.332 OA
BRANCH  26  27
ATOM     27  C   UNL     1      45.671  21.802  20.357  0.00  0.00    +0.456 C 
ATOM     28  C   UNL     1      46.094  22.896  21.304  0.00  0.00    +0.154 C 
ATOM     29  O   UNL     1      45.189  22.083  19.286  0.00  0.00    -0.509 OA
ENDBRANCH  26  27
ENDBRANCH  25  26
TORSDOF 6
ENDMDL
MODEL 3
REMARK VINA RESULT:      -6.3      2.622      4.278
REMARK  Name = ZINC95486220
REMARK  10 active torsions:
REMARK  status: ('A' for Active; 'I' for Inactive)
REMARK    1  A    between atoms: C1_1  and  C2_2
REMARK    2  A    between atoms: C5_7  and  C27_38
REMARK    3  A    between atoms: N1_13  and  C12_16
REMARK    4  A    between atoms: C12_16  and  C13_17
REMARK    5  A    between atoms: C13_17  and  O2_18
REMARK    6  A    between atoms: O2_18  and  C14_19
REMARK    7  A    between atoms: C14_19  and  C15_21
REMARK    8  A    between atoms: C24_32  and  O4_34
REMARK    9  A    between atoms: O4_34  and  C25_35
REMARK   10  A    between atoms: C25_35  and  C26_37
REMARK                            x       y       z     vdW  Elec       q    Type
REMARK                         _______ _______ _______ _____ _____    ______ ____
ROOT
ATOM      1  C   UNL     1      45.741  15.401  21.170  0.00  0.00    +0.012 C 
ATOM      2  C   UNL     1      46.830  16.456  20.961  0.00  0.00    -0.001 C 
ATOM      3  C   UNL     1      46.353  17.780  21.561  0.00  0.00    +0.021 C 
ATOM      4  C   UNL     1      46.517  18.929  20.581  0.00  0.00    +0.026 C 
ATOM      5  C   UNL     1      46.066  20.255  21.202  0.00  0.00    -0.070 C 
ATOM      6  C   UNL     1      46.818  20.541  22.505  0.00  0.00    +0.063 C 
ATOM      7  C   UNL     1      46.336  21.382  20.188  0.00  0.00    +0.041 C 
ATOM      8  C   UNL     1      45.489  21.129  18.940  0.00  0.00    +0.003 C 
ATOM      9  C   UNL     1      45.880  19.789  18.320  0.00  0.00    +0.038 C 
ATOM     10  C   UNL     1      44.582  20.210  21.447  0.00  0.00    +0.534 C 
ATOM     11  O   UNL     1      44.104  20.909  22.314  0.00  0.00    -0.526 OA
ATOM     12  N   UNL     1      43.779  19.421  20.734  0.00  0.00    -0.600 N 
ATOM     19  C   UNL     1      44.211  18.523  19.684  0.00  0.00    +0.252 C 
ATOM     20  C   UNL     1      45.694  18.652  19.320  0.00  0.00    -0.039 C 
ATOM     21  C   UNL     1      46.118  17.321  18.706  0.00  0.00    +0.005 C 
ATOM     22  C   UNL     1      46.478  17.430  17.230  0.00  0.00    +0.030 C 
ATOM     23  C   UNL     1      47.891  16.876  17.000  0.00  0.00    +0.037 C 
ATOM     24  C   UNL     1      47.911  15.430  17.470  0.00  0.00    -0.140 C 
ATOM     25  C   UNL     1      47.322  15.183  18.854  0.00  0.00    +0.222 C 
ATOM     30  C   UNL     1      48.403  14.460  16.739  0.00  0.00    +0.029 C 
ATOM     31  C   UNL     1      48.839  17.668  17.916  0.00  0.00    +0.023 C 
ATOM     32  C   UNL     1      48.576  17.235  19.359  0.00  0.00    +0.028 C 
ATOM     33  C   UNL     1      47.196  16.591  19.492  0.00  0.00    -0.016 C 
ENDROOT
BRANCH  12  13
ATOM     13  C   UNL     1      42.346  19.468  21.041  0.00  0.00    +0.305 C 
BRANCH  13  14
ATOM     14  C   UNL     1      41.542  19.388  19.742  0.00  0.00    +0.192 C 
BRANCH  14  15
ATOM     15  O   UNL     1      40.347  20.161  19.873  0.00  0.00    -0.330 OA
BRANCH  15  16
ATOM     16  C   UNL     1      40.227  21.237  19.078  0.00  0.00    +0.457 C 
ATOM     17  C   UNL     1      41.457  21.989  18.637  0.00  0.00    +0.152 C 
ATOM     18  O   UNL     1      39.135  21.601  18.716  0.00  0.00    -0.518 OA
ENDBRANCH  15  16
ENDBRANCH  14  15
ENDBRANCH  13  14
ENDBRANCH  12  13
BRANCH  25  26
ATOM     26  O   UNL     1      48.203  14.368  19.623  0.00  0.00    -0.332 OA
BRANCH  26  27
ATOM     27  C   UNL     1      47.833  13.094  19.826  0.00  0.00    +0.456 C 
ATOM     28  C   UNL     1      48.594  12.235  20.804  0.00  0.00    +0.154 C 
ATOM     29  O   UNL     1      46.890  12.635  19.226  0.00  0.00    -0.509 OA
ENDBRANCH  26  27
ENDBRANCH  25  26
TORSDOF 6
ENDMDL
MODEL 4
REMARK VINA RESULT:      -6.2      2.732      7.704
REMARK  Name = ZINC95486220
REMARK  10 active torsions:
REMARK  status: ('A' for Active; 'I' for Inactive)
REMARK    1  A    between atoms: C1_1  and  C2_2
REMARK    2  A    between atoms: C5_7  and  C27_38
REMARK    3  A    between atoms: N1_13  and  C12_16
REMARK    4  A    between atoms: C12_16  and  C13_17
REMARK    5  A    between atoms: C13_17  and  O2_18
REMARK    6  A    between atoms: O2_18  and  C14_19
REMARK    7  A    between atoms: C14_19  and  C15_21
REMARK    8  A    between atoms: C24_32  and  O4_34
REMARK    9  A    between atoms: O4_34  and  C25_35
REMARK   10  A    between atoms: C25_35  and  C26_37
REMARK                            x       y       z     vdW  Elec       q    Type
REMARK                         _______ _______ _______ _____ _____    ______ ____
ROOT
ATOM      1  C   UNL     1      48.412  15.468  19.974  0.00  0.00    +0.012 C 
ATOM      2  C   UNL     1      48.170  16.423  18.802  0.00  0.00    -0.001 C 
ATOM      3  C   UNL     1      49.516  16.981  18.337  0.00  0.00    +0.021 C 
ATOM      4  C   UNL     1      49.483  18.496  18.216  0.00  0.00    +0.026 C 
ATOM      5  C   UNL     1      50.825  19.041  17.720  0.00  0.00    -0.070 C 
ATOM      6  C   UNL     1      51.227  18.399  16.389  0.00  0.00    +0.063 C 
ATOM      7  C   UNL     1      50.693  20.565  17.543  0.00  0.00    +0.041 C 
ATOM      8  C   UNL     1      50.399  21.192  18.907  0.00  0.00    +0.003 C 
ATOM      9  C   UNL     1      49.087  20.633  19.454  0.00  0.00    +0.038 C 
ATOM     10  C   UNL     1      51.879  18.795  18.766  0.00  0.00    +0.534 C 
ATOM     11  O   UNL     1      53.039  18.712  18.428  0.00  0.00    -0.526 OA
ATOM     12  N   UNL     1      51.568  18.667  20.055  0.00  0.00    -0.600 N 
ATOM     19  C   UNL     1      50.228  18.726  20.600  0.00  0.00    +0.252 C 
ATOM     20  C   UNL     1      49.154  19.113  19.578  0.00  0.00    -0.039 C 
ATOM     21  C   UNL     1      47.828  18.559  20.093  0.00  0.00    +0.005 C 
ATOM     22  C   UNL     1      46.837  19.645  20.487  0.00  0.00    +0.030 C 
ATOM     23  C   UNL     1      45.515  19.436  19.734  0.00  0.00    +0.037 C 
ATOM     24  C   UNL     1      44.989  18.053  20.082  0.00  0.00    -0.140 C 
ATOM     25  C   UNL     1      46.002  16.919  19.966  0.00  0.00    +0.222 C 
ATOM     30  C   UNL     1      43.750  17.844  20.455  0.00  0.00    +0.029 C 
ATOM     31  C   UNL     1      45.849  19.434  18.233  0.00  0.00    +0.023 C 
ATOM     32  C   UNL     1      46.587  18.134  17.912  0.00  0.00    +0.028 C 
ATOM     33  C   UNL     1      47.191  17.524  19.177  0.00  0.00    -0.016 C 
ENDROOT
BRANCH  12  13
ATOM     13  C   UNL     1      52.673  18.449  20.994  0.00  0.00    +0.305 C 
BRANCH  13  14
ATOM     14  C   UNL     1      52.609  17.020  21.536  0.00  0.00    +0.192 C 
BRANCH  14  15
ATOM     15  O   UNL     1      53.807  16.324  21.187  0.00  0.00    -0.330 OA
BRANCH  15  16
ATOM     16  C   UNL     1      53.862  15.784  19.959  0.00  0.00    +0.457 C 
ATOM     17  C   UNL     1      52.641  15.125  19.370  0.00  0.00    +0.152 C 
ATOM     18  O   UNL     1      54.890  15.825  19.326  0.00  0.00    -0.518 OA
ENDBRANCH  15  16
ENDBRANCH  14  15
ENDBRANCH  13  14
ENDBRANCH  12  13
BRANCH  25  26
ATOM     26  O   UNL     1      45.434  15.828  19.246  0.00  0.00    -0.332 OA
BRANCH  26  27
ATOM     27  C   UNL     1      45.234  14.687  19.925  0.00  0.00    +0.456 C 
ATOM     28  C   UNL     1      45.177  13.373  19.189  0.00  0.00    +0.154 C 
ATOM     29  O   UNL     1      45.100  14.714  21.125  0.00  0.00    -0.509 OA
ENDBRANCH  26  27
ENDBRANCH  25  26
TORSDOF 6
ENDMDL
MODEL 5
REMARK VINA RESULT:      -6.1      3.152      6.910
REMARK  Name = ZINC95486220
REMARK  10 active torsions:
REMARK  status: ('A' for Active; 'I' for Inactive)
REMARK    1  A    between atoms: C1_1  and  C2_2
REMARK    2  A    between atoms: C5_7  and  C27_38
REMARK    3  A    between atoms: N1_13  and  C12_16
REMARK    4  A    between atoms: C12_16  and  C13_17
REMARK    5  A    between atoms: C13_17  and  O2_18
REMARK    6  A    between atoms: O2_18  and  C14_19
REMARK    7  A    between atoms: C14_19  and  C15_21
REMARK    8  A    between atoms: C24_32  and  O4_34
REMARK    9  A    between atoms: O4_34  and  C25_35
REMARK   10  A    between atoms: C25_35  and  C26_37
REMARK                            x       y       z     vdW  Elec       q    Type
REMARK                         _______ _______ _______ _____ _____    ______ ____
ROOT
ATOM      1  C   UNL     1      47.870  15.701  17.873  0.00  0.00    +0.012 C 
ATOM      2  C   UNL     1      46.778  16.597  18.464  0.00  0.00    -0.001 C 
ATOM      3  C   UNL     1      47.264  18.047  18.437  0.00  0.00    +0.021 C 
ATOM      4  C   UNL     1      47.086  18.721  19.788  0.00  0.00    +0.026 C 
ATOM      5  C   UNL     1      47.547  20.182  19.743  0.00  0.00    -0.070 C 
ATOM      6  C   UNL     1      46.815  20.960  18.646  0.00  0.00    +0.063 C 
ATOM      7  C   UNL     1      47.263  20.823  21.114  0.00  0.00    +0.041 C 
ATOM      8  C   UNL     1      48.090  20.095  22.175  0.00  0.00    +0.003 C 
ATOM      9  C   UNL     1      47.689  18.621  22.213  0.00  0.00    +0.038 C 
ATOM     10  C   UNL     1      49.035  20.226  19.520  0.00  0.00    +0.534 C 
ATOM     11  O   UNL     1      49.526  21.206  19.004  0.00  0.00    -0.526 OA
ATOM     12  N   UNL     1      49.826  19.216  19.878  0.00  0.00    -0.600 N 
ATOM     19  C   UNL     1      49.378  17.981  20.486  0.00  0.00    +0.252 C 
ATOM     20  C   UNL     1      47.890  17.966  20.850  0.00  0.00    -0.039 C 
ATOM     21  C   UNL     1      47.455  16.504  20.888  0.00  0.00    +0.005 C 
ATOM     22  C   UNL     1      47.074  16.028  22.283  0.00  0.00    +0.030 C 
ATOM     23  C   UNL     1      45.657  15.437  22.257  0.00  0.00    +0.037 C 
ATOM     24  C   UNL     1      45.643  14.292  21.257  0.00  0.00    -0.140 C 
ATOM     25  C   UNL     1      46.254  14.603  19.896  0.00  0.00    +0.222 C 
ATOM     30  C   UNL     1      45.140  13.115  21.543  0.00  0.00    +0.029 C 
ATOM     31  C   UNL     1      44.723  16.530  21.712  0.00  0.00    +0.023 C 
ATOM     32  C   UNL     1      45.008  16.697  20.219  0.00  0.00    +0.028 C 
ATOM     33  C   UNL     1      46.389  16.147  19.863  0.00  0.00    -0.016 C 
ENDROOT
BRANCH  12  13
ATOM     13  C   UNL     1      51.264  19.371  19.634  0.00  0.00    +0.305 C 
BRANCH  13  14
ATOM     14  C   UNL     1      51.675  18.508  18.439  0.00  0.00    +0.192 C 
BRANCH  14  15
ATOM     15  O   UNL     1      52.585  19.240  17.615  0.00  0.00    -0.330 OA
BRANCH  15  16
ATOM     16  C   UNL     1      52.131  19.648  16.419  0.00  0.00    +0.457 C 
ATOM     17  C   UNL     1      51.689  21.076  16.228  0.00  0.00    +0.152 C 
ATOM     18  O   UNL     1      52.077  18.871  15.497  0.00  0.00    -0.518 OA
ENDBRANCH  15  16
ENDBRANCH  14  15
ENDBRANCH  13  14
ENDBRANCH  12  13
BRANCH  25  26
ATOM     26  O   UNL     1      45.383  14.160  18.857  0.00  0.00    -0.332 OA
BRANCH  26  27
ATOM     27  C   UNL     1      45.716  13.022  18.227  0.00  0.00    +0.456 C 
ATOM     28  C   UNL     1      47.071  12.404  18.455  0.00  0.00    +0.154 C 
ATOM     29  O   UNL     1      44.929  12.495  17.477  0.00  0.00    -0.509 OA
ENDBRANCH  26  27
ENDBRANCH  25  26
TORSDOF 6
ENDMDL
MODEL 6
REMARK VINA RESULT:      -6.0      4.167      6.575
REMARK  Name = ZINC95486220
REMARK  10 active torsions:
REMARK  status: ('A' for Active; 'I' for Inactive)
REMARK    1  A    between atoms: C1_1  and  C2_2
REMARK    2  A    between atoms: C5_7  and  C27_38
REMARK    3  A    between atoms: N1_13  and  C12_16
REMARK    4  A    between atoms: C12_16  and  C13_17
REMARK    5  A    between atoms: C13_17  and  O2_18
REMARK    6  A    between atoms: O2_18  and  C14_19
REMARK    7  A    between atoms: C14_19  and  C15_21
REMARK    8  A    between atoms: C24_32  and  O4_34
REMARK    9  A    between atoms: O4_34  and  C25_35
REMARK   10  A    between atoms: C25_35  and  C26_37
REMARK                            x       y       z     vdW  Elec       q    Type
REMARK                         _______ _______ _______ _____ _____    ______ ____
ROOT
ATOM      1  C   UNL     1      50.951  16.052  17.014  0.00  0.00    +0.012 C 
ATOM      2  C   UNL     1      50.443  15.952  18.455  0.00  0.00    -0.001 C 
ATOM      3  C   UNL     1      49.820  14.571  18.662  0.00  0.00    +0.021 C 
ATOM      4  C   UNL     1      48.439  14.669  19.290  0.00  0.00    +0.026 C 
ATOM      5  C   UNL     1      47.837  13.279  19.523  0.00  0.00    -0.070 C 
ATOM      6  C   UNL     1      48.763  12.410  20.378  0.00  0.00    +0.063 C 
ATOM      7  C   UNL     1      46.482  13.451  20.233  0.00  0.00    +0.041 C 
ATOM      8  C   UNL     1      45.542  14.229  19.311  0.00  0.00    +0.003 C 
ATOM      9  C   UNL     1      46.137  15.606  19.020  0.00  0.00    +0.038 C 
ATOM     10  C   UNL     1      47.574  12.624  18.194  0.00  0.00    +0.534 C 
ATOM     11  O   UNL     1      47.548  11.414  18.127  0.00  0.00    -0.526 OA
ATOM     12  N   UNL     1      47.367  13.340  17.090  0.00  0.00    -0.600 N 
ATOM     19  C   UNL     1      47.387  14.786  17.017  0.00  0.00    +0.252 C 
ATOM     20  C   UNL     1      47.515  15.479  18.378  0.00  0.00    -0.039 C 
ATOM     21  C   UNL     1      48.117  16.857  18.121  0.00  0.00    +0.005 C 
ATOM     22  C   UNL     1      47.155  17.998  18.426  0.00  0.00    +0.030 C 
ATOM     23  C   UNL     1      47.807  18.971  19.418  0.00  0.00    +0.037 C 
ATOM     24  C   UNL     1      49.095  19.485  18.796  0.00  0.00    -0.140 C 
ATOM     25  C   UNL     1      50.015  18.415  18.219  0.00  0.00    +0.222 C 
ATOM     30  C   UNL     1      49.399  20.759  18.758  0.00  0.00    +0.029 C 
ATOM     31  C   UNL     1      48.193  18.154  20.662  0.00  0.00    +0.023 C 
ATOM     32  C   UNL     1      49.378  17.261  20.293  0.00  0.00    +0.028 C 
ATOM     33  C   UNL     1      49.471  17.075  18.779  0.00  0.00    -0.016 C 
ENDROOT
BRANCH  12  13
ATOM     13  C   UNL     1      47.100  12.602  15.851  0.00  0.00    +0.305 C 
BRANCH  13  14
ATOM     14  C   UNL     1      48.239  12.840  14.858  0.00  0.00    +0.192 C 
BRANCH  14  15
ATOM     15  O   UNL     1      49.247  11.844  15.041  0.00  0.00    -0.330 OA
BRANCH  15  16
ATOM     16  C   UNL     1      50.413  12.248  15.571  0.00  0.00    +0.457 C 
ATOM     17  C   UNL     1      50.932  11.602  16.830  0.00  0.00    +0.152 C 
ATOM     18  O   UNL     1      51.046  13.128  15.039  0.00  0.00    -0.518 OA
ENDBRANCH  15  16
ENDBRANCH  14  15
ENDBRANCH  13  14
ENDBRANCH  12  13
BRANCH  25  26
ATOM     26  O   UNL     1      51.353  18.630  18.664  0.00  0.00    -0.332 OA
BRANCH  26  27
ATOM     27  C   UNL     1      52.138  19.394  17.887  0.00  0.00    +0.456 C 
ATOM     28  C   UNL     1      52.000  19.335  16.388  0.00  0.00    +0.154 C 
ATOM     29  O   UNL     1      52.954  20.128  18.391  0.00  0.00    -0.509 OA
ENDBRANCH  26  27
ENDBRANCH  25  26
TORSDOF 6
ENDMDL
MODEL 7
REMARK VINA RESULT:      -5.9      2.814      5.922
REMARK  Name = ZINC95486220
REMARK  10 active torsions:
REMARK  status: ('A' for Active; 'I' for Inactive)
REMARK    1  A    between atoms: C1_1  and  C2_2
REMARK    2  A    between atoms: C5_7  and  C27_38
REMARK    3  A    between atoms: N1_13  and  C12_16
REMARK    4  A    between atoms: C12_16  and  C13_17
REMARK    5  A    between atoms: C13_17  and  O2_18
REMARK    6  A    between atoms: O2_18  and  C14_19
REMARK    7  A    between atoms: C14_19  and  C15_21
REMARK    8  A    between atoms: C24_32  and  O4_34
REMARK    9  A    between atoms: O4_34  and  C25_35
REMARK   10  A    between atoms: C25_35  and  C26_37
REMARK                            x       y       z     vdW  Elec       q    Type
REMARK                         _______ _______ _______ _____ _____    ______ ____
ROOT
ATOM      1  C   UNL     1      47.852  16.877  16.899  0.00  0.00    +0.012 C 
ATOM      2  C   UNL     1      46.571  16.503  17.649  0.00  0.00    -0.001 C 
ATOM      3  C   UNL     1      45.938  17.778  18.207  0.00  0.00    +0.021 C 
ATOM      4  C   UNL     1      45.597  17.635  19.681  0.00  0.00    +0.026 C 
ATOM      5  C   UNL     1      44.934  18.906  20.223  0.00  0.00    -0.070 C 
ATOM      6  C   UNL     1      43.689  19.271  19.410  0.00  0.00    +0.063 C 
ATOM      7  C   UNL     1      44.543  18.660  21.692  0.00  0.00    +0.041 C 
ATOM      8  C   UNL     1      45.816  18.405  22.500  0.00  0.00    +0.003 C 
ATOM      9  C   UNL     1      46.529  17.169  21.955  0.00  0.00    +0.038 C 
ATOM     10  C   UNL     1      45.931  20.033  20.199  0.00  0.00    +0.534 C 
ATOM     11  O   UNL     1      45.530  21.175  20.134  0.00  0.00    -0.526 OA
ATOM     12  N   UNL     1      47.243  19.808  20.252  0.00  0.00    -0.600 N 
ATOM     19  C   UNL     1      47.863  18.502  20.314  0.00  0.00    +0.252 C 
ATOM     20  C   UNL     1      46.871  17.345  20.478  0.00  0.00    -0.039 C 
ATOM     21  C   UNL     1      47.552  16.093  19.933  0.00  0.00    +0.005 C 
ATOM     22  C   UNL     1      47.848  15.055  21.007  0.00  0.00    +0.030 C 
ATOM     23  C   UNL     1      47.227  13.709  20.608  0.00  0.00    +0.037 C 
ATOM     24  C   UNL     1      47.810  13.300  19.266  0.00  0.00    -0.140 C 
ATOM     25  C   UNL     1      47.795  14.378  18.189  0.00  0.00    +0.222 C 
ATOM     30  C   UNL     1      48.294  12.101  19.045  0.00  0.00    +0.029 C 
ATOM     31  C   UNL     1      45.723  13.953  20.398  0.00  0.00    +0.023 C 
ATOM     32  C   UNL     1      45.548  14.758  19.110  0.00  0.00    +0.028 C 
ATOM     33  C   UNL     1      46.846  15.475  18.736  0.00  0.00    -0.016 C 
ENDROOT
BRANCH  12  13
ATOM     13  C   UNL     1      48.126  20.979  20.243  0.00  0.00    +0.305 C 
BRANCH  13  14
ATOM     14  C   UNL     1      49.528  20.559  19.800  0.00  0.00    +0.192 C 
BRANCH  14  15
ATOM     15  O   UNL     1      49.805  21.110  18.511  0.00  0.00    -0.330 OA
BRANCH  15  16
ATOM     16  C   UNL     1      51.093  21.154  18.131  0.00  0.00    +0.457 C 
ATOM     17  C   UNL     1      51.446  21.135  16.666  0.00  0.00    +0.152 C 
ATOM     18  O   UNL     1      51.967  21.208  18.962  0.00  0.00    -0.518 OA
ENDBRANCH  15  16
ENDBRANCH  14  15
ENDBRANCH  13  14
ENDBRANCH  12  13
BRANCH  25  26
ATOM     26  O   UNL     1      47.284  13.844  16.970  0.00  0.00    -0.332 OA
BRANCH  26  27
ATOM     27  C   UNL     1      48.182  13.493  16.035  0.00  0.00    +0.456 C 
ATOM     28  C   UNL     1      47.768  12.605  14.889  0.00  0.00    +0.154 C 
ATOM     29  O   UNL     1      49.321  13.889  16.112  0.00  0.00    -0.509 OA
ENDBRANCH  26  27
ENDBRANCH  25  26
TORSDOF 6
ENDMDL
MODEL 8
REMARK VINA RESULT:      -5.7      2.397      6.568
REMARK  Name = ZINC95486220
REMARK  10 active torsions:
REMARK  status: ('A' for Active; 'I' for Inactive)
REMARK    1  A    between atoms: C1_1  and  C2_2
REMARK    2  A    between atoms: C5_7  and  C27_38
REMARK    3  A    between atoms: N1_13  and  C12_16
REMARK    4  A    between atoms: C12_16  and  C13_17
REMARK    5  A    between atoms: C13_17  and  O2_18
REMARK    6  A    between atoms: O2_18  and  C14_19
REMARK    7  A    between atoms: C14_19  and  C15_21
REMARK    8  A    between atoms: C24_32  and  O4_34
REMARK    9  A    between atoms: O4_34  and  C25_35
REMARK   10  A    between atoms: C25_35  and  C26_37
REMARK                            x       y       z     vdW  Elec       q    Type
REMARK                         _______ _______ _______ _____ _____    ______ ____
ROOT
ATOM      1  C   UNL     1      45.465  17.428  18.763  0.00  0.00    +0.012 C 
ATOM      2  C   UNL     1      46.493  18.542  18.549  0.00  0.00    -0.001 C 
ATOM      3  C   UNL     1      47.789  17.921  18.024  0.00  0.00    +0.021 C 
ATOM      4  C   UNL     1      48.997  18.392  18.817  0.00  0.00    +0.026 C 
ATOM      5  C   UNL     1      50.292  17.789  18.264  0.00  0.00    -0.070 C 
ATOM      6  C   UNL     1      50.461  18.108  16.776  0.00  0.00    +0.063 C 
ATOM      7  C   UNL     1      51.476  18.371  19.058  0.00  0.00    +0.041 C 
ATOM      8  C   UNL     1      51.339  17.945  20.521  0.00  0.00    +0.003 C 
ATOM      9  C   UNL     1      50.031  18.491  21.092  0.00  0.00    +0.038 C 
ATOM     10  C   UNL     1      50.282  16.301  18.488  0.00  0.00    +0.534 C 
ATOM     11  O   UNL     1      50.936  15.589  17.758  0.00  0.00    -0.526 OA
ATOM     12  N   UNL     1      49.573  15.746  19.470  0.00  0.00    -0.600 N 
ATOM     19  C   UNL     1      48.735  16.468  20.404  0.00  0.00    +0.252 C 
ATOM     20  C   UNL     1      48.835  17.992  20.286  0.00  0.00    -0.039 C 
ATOM     21  C   UNL     1      47.536  18.569  20.841  0.00  0.00    +0.005 C 
ATOM     22  C   UNL     1      47.733  19.365  22.124  0.00  0.00    +0.030 C 
ATOM     23  C   UNL     1      47.146  20.774  21.952  0.00  0.00    +0.037 C 
ATOM     24  C   UNL     1      45.672  20.630  21.610  0.00  0.00    -0.140 C 
ATOM     25  C   UNL     1      45.352  19.641  20.495  0.00  0.00    +0.222 C 
ATOM     30  C   UNL     1      44.737  21.310  22.228  0.00  0.00    +0.029 C 
ATOM     31  C   UNL     1      47.839  21.404  20.733  0.00  0.00    +0.023 C 
ATOM     32  C   UNL     1      47.319  20.706  19.477  0.00  0.00    +0.028 C 
ATOM     33  C   UNL     1      46.716  19.343  19.821  0.00  0.00    -0.016 C 
ENDROOT
BRANCH  12  13
ATOM     13  C   UNL     1      49.649  14.288  19.613  0.00  0.00    +0.305 C 
BRANCH  13  14
ATOM     14  C   UNL     1      48.236  13.705  19.664  0.00  0.00    +0.192 C 
BRANCH  14  15
ATOM     15  O   UNL     1      47.833  13.318  18.349  0.00  0.00    -0.330 OA
BRANCH  15  16
ATOM     16  C   UNL     1      46.780  13.962  17.820  0.00  0.00    +0.457 C 
ATOM     17  C   UNL     1      46.934  14.728  16.531  0.00  0.00    +0.152 C 
ATOM     18  O   UNL     1      45.709  13.927  18.377  0.00  0.00    -0.518 OA
ENDBRANCH  15  16
ENDBRANCH  14  15
ENDBRANCH  13  14
ENDBRANCH  12  13
BRANCH  25  26
ATOM     26  O   UNL     1      44.455  20.234  19.559  0.00  0.00    -0.332 OA
BRANCH  26  27
ATOM     27  C   UNL     1      43.172  19.842  19.611  0.00  0.00    +0.456 C 
ATOM     28  C   UNL     1      42.151  20.485  18.708  0.00  0.00    +0.154 C 
ATOM     29  O   UNL     1      42.836  18.974  20.382  0.00  0.00    -0.509 OA
ENDBRANCH  26  27
ENDBRANCH  25  26
TORSDOF 6
ENDMDL
MODEL 9
REMARK VINA RESULT:      -5.5      2.540      6.697
REMARK  Name = ZINC95486220
REMARK  10 active torsions:
REMARK  status: ('A' for Active; 'I' for Inactive)
REMARK    1  A    between atoms: C1_1  and  C2_2
REMARK    2  A    between atoms: C5_7  and  C27_38
REMARK    3  A    between atoms: N1_13  and  C12_16
REMARK    4  A    between atoms: C12_16  and  C13_17
REMARK    5  A    between atoms: C13_17  and  O2_18
REMARK    6  A    between atoms: O2_18  and  C14_19
REMARK    7  A    between atoms: C14_19  and  C15_21
REMARK    8  A    between atoms: C24_32  and  O4_34
REMARK    9  A    between atoms: O4_34  and  C25_35
REMARK   10  A    between atoms: C25_35  and  C26_37
REMARK                            x       y       z     vdW  Elec       q    Type
REMARK                         _______ _______ _______ _____ _____    ______ ____
ROOT
ATOM      1  C   UNL     1      44.671  16.662  20.321  0.00  0.00    +0.012 C 
ATOM      2  C   UNL     1      45.530  17.348  19.255  0.00  0.00    -0.001 C 
ATOM      3  C   UNL     1      46.705  16.432  18.906  0.00  0.00    +0.021 C 
ATOM      4  C   UNL     1      48.029  17.176  18.955  0.00  0.00    +0.026 C 
ATOM      5  C   UNL     1      49.194  16.258  18.574  0.00  0.00    -0.070 C 
ATOM      6  C   UNL     1      48.976  15.628  17.195  0.00  0.00    +0.063 C 
ATOM      7  C   UNL     1      50.487  17.095  18.564  0.00  0.00    +0.041 C 
ATOM      8  C   UNL     1      50.739  17.622  19.978  0.00  0.00    +0.003 C 
ATOM      9  C   UNL     1      49.569  18.506  20.409  0.00  0.00    +0.038 C 
ATOM     10  C   UNL     1      49.351  15.192  19.624  0.00  0.00    +0.534 C 
ATOM     11  O   UNL     1      49.862  14.136  19.323  0.00  0.00    -0.526 OA
ATOM     12  N   UNL     1      48.943  15.381  20.878  0.00  0.00    -0.600 N 
ATOM     19  C   UNL     1      48.302  16.580  21.375  0.00  0.00    +0.252 C 
ATOM     20  C   UNL     1      48.256  17.730  20.364  0.00  0.00    -0.039 C 
ATOM     21  C   UNL     1      47.089  18.628  20.763  0.00  0.00    +0.005 C 
ATOM     22  C   UNL     1      47.528  20.006  21.240  0.00  0.00    +0.030 C 
ATOM     23  C   UNL     1      46.812  21.089  20.419  0.00  0.00    +0.037 C 
ATOM     24  C   UNL     1      45.315  20.895  20.589  0.00  0.00    -0.140 C 
ATOM     25  C   UNL     1      44.811  19.470  20.386  0.00  0.00    +0.222 C 
ATOM     30  C   UNL     1      44.507  21.883  20.890  0.00  0.00    +0.029 C 
ATOM     31  C   UNL     1      47.142  20.823  18.941  0.00  0.00    +0.023 C 
ATOM     32  C   UNL     1      46.389  19.567  18.504  0.00  0.00    +0.028 C 
ATOM     33  C   UNL     1      45.991  18.722  19.715  0.00  0.00    -0.016 C 
ENDROOT
BRANCH  12  13
ATOM     13  C   UNL     1      49.161  14.285  21.828  0.00  0.00    +0.305 C 
BRANCH  13  14
ATOM     14  C   UNL     1      47.812  13.736  22.295  0.00  0.00    +0.192 C 
BRANCH  14  15
ATOM     15  O   UNL     1      47.094  13.220  21.173  0.00  0.00    -0.330 OA
BRANCH  15  16
ATOM     16  C   UNL     1      45.756  13.332  21.201  0.00  0.00    +0.457 C 
ATOM     17  C   UNL     1      45.050  13.607  22.504  0.00  0.00    +0.152 C 
ATOM     18  O   UNL     1      45.118  13.212  20.183  0.00  0.00    -0.518 OA
ENDBRANCH  15  16
ENDBRANCH  14  15
ENDBRANCH  13  14
ENDBRANCH  12  13
BRANCH  25  26
ATOM     26  O   UNL     1      43.673  19.473  19.526  0.00  0.00    -0.332 OA
BRANCH  26  27
ATOM     27  C   UNL     1      42.466  19.429  20.113  0.00  0.00    +0.456 C 
ATOM     28  C   UNL     1      41.247  19.904  19.364  0.00  0.00    +0.154 C 
ATOM     29  O   UNL     1      42.358  19.010  21.241  0.00  0.00    -0.509 OA
ENDBRANCH  26  27
ENDBRANCH  25  26
TORSDOF 6
ENDMDL
