MODEL 1
REMARK VINA RESULT:      -5.1      0.000      0.000
REMARK  Name = ZINC04098841
REMARK  9 active torsions:
REMARK  status: ('A' for Active; 'I' for Inactive)
REMARK    1  A    between atoms: C1_1  and  N1_2
REMARK    2  A    between atoms: C11_13  and  O5_23
REMARK    3  A    between atoms: C12_14  and  O4_21
REMARK    4  A    between atoms: C13_15  and  O3_19
REMARK    5  A    between atoms: C14_16  and  O2_17
REMARK    6  A    between atoms: O2_17  and  C15_18
REMARK    7  A    between atoms: O3_19  and  C16_20
REMARK    8  A    between atoms: O4_21  and  C17_22
REMARK    9  A    between atoms: O5_23  and  C18_24
REMARK                            x       y       z     vdW  Elec       q    Type
REMARK                         _______ _______ _______ _____ _____    ______ ____
ROOT
ATOM      1  C   UNL     1      49.997  16.290  17.347  0.00  0.00    +0.319 C 
ATOM      2  N   UNL     1      49.427  17.503  17.939  0.00  0.00    -0.510 N 
ATOM      3  C   UNL     1      50.176  18.660  17.936  0.00  0.00    +0.217 A 
ATOM      4  C   UNL     1      51.450  18.663  17.371  0.00  0.00    -0.047 A 
ATOM      5  C   UNL     1      52.203  19.816  17.372  0.00  0.00    +0.087 A 
ATOM      6  C   UNL     1      51.702  20.988  17.922  0.00  0.00    -0.033 A 
ATOM      7  C   UNL     1      50.444  21.009  18.481  0.00  0.00    +0.119 A 
ATOM      8  C   UNL     1      49.672  19.846  18.492  0.00  0.00    -0.210 A 
ATOM      9  C   UNL     1      48.321  19.845  19.086  0.00  0.00    +0.438 A 
ATOM     10  C   UNL     1      47.567  18.584  19.061  0.00  0.00    -0.224 A 
ATOM     11  C   UNL     1      46.278  18.512  19.608  0.00  0.00    +0.189 A 
ATOM     14  C   UNL     1      45.586  17.312  19.574  0.00  0.00    +0.020 A 
ATOM     17  C   UNL     1      46.169  16.185  19.000  0.00  0.00    +0.148 A 
ATOM     20  C   UNL     1      47.443  16.248  18.457  0.00  0.00    +0.010 A 
ATOM     23  O   UNL     1      47.848  20.854  19.579  0.00  0.00    -0.445 OA
ATOM     24  C   UNL     1      48.156  17.445  18.481  0.00  0.00    +0.236 A 
ENDROOT
BRANCH  11  12
ATOM     12  O   UNL     1      45.711  19.612  20.169  0.00  0.00    -0.314 OA
ATOM     13  C   UNL     1      44.677  20.259  19.424  0.00  0.00    +0.249 C 
ENDBRANCH  11  12
BRANCH  14  15
ATOM     15  O   UNL     1      44.334  17.235  20.103  0.00  0.00    -0.312 OA
ATOM     16  C   UNL     1      44.237  17.014  21.512  0.00  0.00    +0.227 C 
ENDBRANCH  14  15
BRANCH  17  18
ATOM     18  O   UNL     1      45.482  15.012  18.972  0.00  0.00    -0.319 OA
ATOM     19  C   UNL     1      45.729  14.090  20.035  0.00  0.00    +0.242 C 
ENDBRANCH  17  18
BRANCH  20  21
ATOM     21  O   UNL     1      48.000  15.138  17.898  0.00  0.00    -0.315 OA
ATOM     22  C   UNL     1      47.386  14.631  16.712  0.00  0.00    +0.228 C 
ENDBRANCH  20  21
TORSDOF 4
ENDMDL
MODEL 2
REMARK VINA RESULT:      -5.1      0.828      3.653
REMARK  Name = ZINC04098841
REMARK  9 active torsions:
REMARK  status: ('A' for Active; 'I' for Inactive)
REMARK    1  A    between atoms: C1_1  and  N1_2
REMARK    2  A    between atoms: C11_13  and  O5_23
REMARK    3  A    between atoms: C12_14  and  O4_21
REMARK    4  A    between atoms: C13_15  and  O3_19
REMARK    5  A    between atoms: C14_16  and  O2_17
REMARK    6  A    between atoms: O2_17  and  C15_18
REMARK    7  A    between atoms: O3_19  and  C16_20
REMARK    8  A    between atoms: O4_21  and  C17_22
REMARK    9  A    between atoms: O5_23  and  C18_24
REMARK                            x       y       z     vdW  Elec       q    Type
REMARK                         _______ _______ _______ _____ _____    ______ ____
ROOT
ATOM      1  C   UNL     1      47.804  20.667  19.537  0.00  0.00    +0.319 C 
ATOM      2  N   UNL     1      48.411  19.494  18.901  0.00  0.00    -0.510 N 
ATOM      3  C   UNL     1      49.664  19.618  18.339  0.00  0.00    +0.217 A 
ATOM      4  C   UNL     1      50.332  20.840  18.388  0.00  0.00    -0.047 A 
ATOM      5  C   UNL     1      51.581  20.966  17.823  0.00  0.00    +0.087 A 
ATOM      6  C   UNL     1      52.194  19.883  17.209  0.00  0.00    -0.033 A 
ATOM      7  C   UNL     1      51.554  18.664  17.154  0.00  0.00    +0.119 A 
ATOM      8  C   UNL     1      50.285  18.523  17.718  0.00  0.00    -0.210 A 
ATOM      9  C   UNL     1      49.581  17.227  17.671  0.00  0.00    +0.438 A 
ATOM     10  C   UNL     1      48.249  17.154  18.286  0.00  0.00    -0.224 A 
ATOM     11  C   UNL     1      47.523  15.953  18.277  0.00  0.00    +0.189 A 
ATOM     14  C   UNL     1      46.269  15.907  18.863  0.00  0.00    +0.020 A 
ATOM     17  C   UNL     1      45.732  17.047  19.456  0.00  0.00    +0.148 A 
ATOM     20  C   UNL     1      46.443  18.238  19.469  0.00  0.00    +0.010 A 
ATOM     23  O   UNL     1      50.087  16.253  17.141  0.00  0.00    -0.445 OA
ATOM     24  C   UNL     1      47.706  18.305  18.886  0.00  0.00    +0.236 A 
ENDROOT
BRANCH  11  12
ATOM     12  O   UNL     1      48.047  14.842  17.696  0.00  0.00    -0.314 OA
ATOM     13  C   UNL     1      47.439  14.398  16.482  0.00  0.00    +0.249 C 
ENDBRANCH  11  12
BRANCH  14  15
ATOM     15  O   UNL     1      45.559  14.746  18.857  0.00  0.00    -0.312 OA
ATOM     16  C   UNL     1      45.849  13.802  19.889  0.00  0.00    +0.227 C 
ENDBRANCH  14  15
BRANCH  17  18
ATOM     18  O   UNL     1      44.499  16.992  20.027  0.00  0.00    -0.319 OA
ATOM     19  C   UNL     1      44.446  16.746  21.433  0.00  0.00    +0.242 C 
ENDBRANCH  17  18
BRANCH  20  21
ATOM     21  O   UNL     1      45.905  19.344  20.054  0.00  0.00    -0.315 OA
ATOM     22  C   UNL     1      44.771  19.931  19.412  0.00  0.00    +0.228 C 
ENDBRANCH  20  21
TORSDOF 4
ENDMDL
MODEL 3
REMARK VINA RESULT:      -5.0      1.750      4.437
REMARK  Name = ZINC04098841
REMARK  9 active torsions:
REMARK  status: ('A' for Active; 'I' for Inactive)
REMARK    1  A    between atoms: C1_1  and  N1_2
REMARK    2  A    between atoms: C11_13  and  O5_23
REMARK    3  A    between atoms: C12_14  and  O4_21
REMARK    4  A    between atoms: C13_15  and  O3_19
REMARK    5  A    between atoms: C14_16  and  O2_17
REMARK    6  A    between atoms: O2_17  and  C15_18
REMARK    7  A    between atoms: O3_19  and  C16_20
REMARK    8  A    between atoms: O4_21  and  C17_22
REMARK    9  A    between atoms: O5_23  and  C18_24
REMARK                            x       y       z     vdW  Elec       q    Type
REMARK                         _______ _______ _______ _____ _____    ______ ____
ROOT
ATOM      1  C   UNL     1      47.987  18.915  19.341  0.00  0.00    +0.319 C 
ATOM      2  N   UNL     1      49.008  18.286  18.498  0.00  0.00    -0.510 N 
ATOM      3  C   UNL     1      50.072  19.048  18.064  0.00  0.00    +0.217 A 
ATOM      4  C   UNL     1      50.166  20.388  18.432  0.00  0.00    -0.047 A 
ATOM      5  C   UNL     1      51.225  21.152  17.995  0.00  0.00    +0.087 A 
ATOM      6  C   UNL     1      52.214  20.598  17.195  0.00  0.00    -0.033 A 
ATOM      7  C   UNL     1      52.145  19.274  16.823  0.00  0.00    +0.119 A 
ATOM      8  C   UNL     1      51.073  18.489  17.254  0.00  0.00    -0.210 A 
ATOM      9  C   UNL     1      50.978  17.068  16.868  0.00  0.00    +0.438 A 
ATOM     10  C   UNL     1      49.823  16.305  17.360  0.00  0.00    -0.224 A 
ATOM     11  C   UNL     1      49.669  14.950  17.031  0.00  0.00    +0.189 A 
ATOM     14  C   UNL     1      48.572  14.251  17.506  0.00  0.00    +0.020 A 
ATOM     17  C   UNL     1      47.627  14.890  18.304  0.00  0.00    +0.148 A 
ATOM     20  C   UNL     1      47.772  16.230  18.634  0.00  0.00    +0.010 A 
ATOM     23  O   UNL     1      51.827  16.547  16.167  0.00  0.00    -0.445 OA
ATOM     24  C   UNL     1      48.868  16.951  18.167  0.00  0.00    +0.236 A 
ENDROOT
BRANCH  11  12
ATOM     12  O   UNL     1      50.591  14.328  16.250  0.00  0.00    -0.314 OA
ATOM     13  C   UNL     1      51.462  13.396  16.894  0.00  0.00    +0.249 C 
ENDBRANCH  11  12
BRANCH  14  15
ATOM     15  O   UNL     1      48.417  12.936  17.190  0.00  0.00    -0.312 OA
ATOM     16  C   UNL     1      47.684  12.635  16.001  0.00  0.00    +0.227 C 
ENDBRANCH  14  15
BRANCH  17  18
ATOM     18  O   UNL     1      46.553  14.196  18.764  0.00  0.00    -0.319 OA
ATOM     19  C   UNL     1      46.686  13.562  20.038  0.00  0.00    +0.242 C 
ENDBRANCH  17  18
BRANCH  20  21
ATOM     21  O   UNL     1      46.840  16.842  19.417  0.00  0.00    -0.315 OA
ATOM     22  C   UNL     1      45.536  17.015  18.858  0.00  0.00    +0.228 C 
ENDBRANCH  20  21
TORSDOF 4
ENDMDL
MODEL 4
REMARK VINA RESULT:      -4.6      2.070      5.640
REMARK  Name = ZINC04098841
REMARK  9 active torsions:
REMARK  status: ('A' for Active; 'I' for Inactive)
REMARK    1  A    between atoms: C1_1  and  N1_2
REMARK    2  A    between atoms: C11_13  and  O5_23
REMARK    3  A    between atoms: C12_14  and  O4_21
REMARK    4  A    between atoms: C13_15  and  O3_19
REMARK    5  A    between atoms: C14_16  and  O2_17
REMARK    6  A    between atoms: O2_17  and  C15_18
REMARK    7  A    between atoms: O3_19  and  C16_20
REMARK    8  A    between atoms: O4_21  and  C17_22
REMARK    9  A    between atoms: O5_23  and  C18_24
REMARK                            x       y       z     vdW  Elec       q    Type
REMARK                         _______ _______ _______ _____ _____    ______ ____
ROOT
ATOM      1  C   UNL     1      49.644  20.595  19.156  0.00  0.00    +0.319 C 
ATOM      2  N   UNL     1      48.743  19.507  18.767  0.00  0.00    -0.510 N 
ATOM      3  C   UNL     1      47.385  19.744  18.751  0.00  0.00    +0.217 A 
ATOM      4  C   UNL     1      46.893  21.001  19.096  0.00  0.00    -0.047 A 
ATOM      5  C   UNL     1      45.536  21.238  19.086  0.00  0.00    +0.087 A 
ATOM      6  C   UNL     1      44.646  20.237  18.725  0.00  0.00    -0.033 A 
ATOM      7  C   UNL     1      45.110  18.988  18.375  0.00  0.00    +0.119 A 
ATOM      8  C   UNL     1      46.483  18.733  18.386  0.00  0.00    -0.210 A 
ATOM      9  C   UNL     1      47.003  17.402  18.016  0.00  0.00    +0.438 A 
ATOM     10  C   UNL     1      48.459  17.207  18.050  0.00  0.00    -0.224 A 
ATOM     11  C   UNL     1      49.022  15.968  17.711  0.00  0.00    +0.189 A 
ATOM     14  C   UNL     1      50.397  15.807  17.750  0.00  0.00    +0.020 A 
ATOM     17  C   UNL     1      51.215  16.870  18.127  0.00  0.00    +0.148 A 
ATOM     20  C   UNL     1      50.666  18.098  18.463  0.00  0.00    +0.010 A 
ATOM     23  O   UNL     1      46.252  16.499  17.693  0.00  0.00    -0.445 OA
ATOM     24  C   UNL     1      49.286  18.281  18.429  0.00  0.00    +0.236 A 
ENDROOT
BRANCH  11  12
ATOM     12  O   UNL     1      48.222  14.932  17.346  0.00  0.00    -0.314 OA
ATOM     13  C   UNL     1      48.065  13.871  18.291  0.00  0.00    +0.249 C 
ENDBRANCH  11  12
BRANCH  14  15
ATOM     15  O   UNL     1      50.950  14.607  17.422  0.00  0.00    -0.312 OA
ATOM     16  C   UNL     1      51.210  14.368  16.038  0.00  0.00    +0.227 C 
ENDBRANCH  14  15
BRANCH  17  18
ATOM     18  O   UNL     1      52.563  16.702  18.163  0.00  0.00    -0.319 OA
ATOM     19  C   UNL     1      53.129  16.260  19.398  0.00  0.00    +0.242 C 
ENDBRANCH  17  18
BRANCH  20  21
ATOM     21  O   UNL     1      51.479  19.129  18.828  0.00  0.00    -0.315 OA
ATOM     22  C   UNL     1      52.348  19.656  17.824  0.00  0.00    +0.228 C 
ENDBRANCH  20  21
TORSDOF 4
ENDMDL
MODEL 5
REMARK VINA RESULT:      -4.6      2.113      5.074
REMARK  Name = ZINC04098841
REMARK  9 active torsions:
REMARK  status: ('A' for Active; 'I' for Inactive)
REMARK    1  A    between atoms: C1_1  and  N1_2
REMARK    2  A    between atoms: C11_13  and  O5_23
REMARK    3  A    between atoms: C12_14  and  O4_21
REMARK    4  A    between atoms: C13_15  and  O3_19
REMARK    5  A    between atoms: C14_16  and  O2_17
REMARK    6  A    between atoms: O2_17  and  C15_18
REMARK    7  A    between atoms: O3_19  and  C16_20
REMARK    8  A    between atoms: O4_21  and  C17_22
REMARK    9  A    between atoms: O5_23  and  C18_24
REMARK                            x       y       z     vdW  Elec       q    Type
REMARK                         _______ _______ _______ _____ _____    ______ ____
ROOT
ATOM      1  C   UNL     1      46.217  16.446  17.845  0.00  0.00    +0.319 C 
ATOM      2  N   UNL     1      47.071  17.595  18.156  0.00  0.00    -0.510 N 
ATOM      3  C   UNL     1      46.477  18.803  18.455  0.00  0.00    +0.217 A 
ATOM      4  C   UNL     1      45.088  18.913  18.463  0.00  0.00    -0.047 A 
ATOM      5  C   UNL     1      44.493  20.120  18.756  0.00  0.00    +0.087 A 
ATOM      6  C   UNL     1      45.263  21.234  19.055  0.00  0.00    -0.033 A 
ATOM      7  C   UNL     1      46.637  21.147  19.059  0.00  0.00    +0.119 A 
ATOM      8  C   UNL     1      47.254  19.931  18.758  0.00  0.00    -0.210 A 
ATOM      9  C   UNL     1      48.725  19.815  18.755  0.00  0.00    +0.438 A 
ATOM     10  C   UNL     1      49.304  18.504  18.430  0.00  0.00    -0.224 A 
ATOM     11  C   UNL     1      50.694  18.322  18.408  0.00  0.00    +0.189 A 
ATOM     14  C   UNL     1      51.217  17.077  18.099  0.00  0.00    +0.020 A 
ATOM     17  C   UNL     1      50.366  16.013  17.810  0.00  0.00    +0.148 A 
ATOM     20  C   UNL     1      48.990  16.185  17.830  0.00  0.00    +0.010 A 
ATOM     23  O   UNL     1      49.434  20.772  19.013  0.00  0.00    -0.445 OA
ATOM     24  C   UNL     1      48.443  17.428  18.139  0.00  0.00    +0.236 A 
ENDROOT
BRANCH  11  12
ATOM     12  O   UNL     1      51.523  19.361  18.688  0.00  0.00    -0.314 OA
ATOM     13  C   UNL     1      52.219  19.950  17.587  0.00  0.00    +0.249 C 
ENDBRANCH  11  12
BRANCH  14  15
ATOM     15  O   UNL     1      52.566  16.893  18.076  0.00  0.00    -0.312 OA
ATOM     16  C   UNL     1      53.187  16.489  19.297  0.00  0.00    +0.227 C 
ENDBRANCH  14  15
BRANCH  17  18
ATOM     18  O   UNL     1      50.888  14.795  17.507  0.00  0.00    -0.319 OA
ATOM     19  C   UNL     1      51.094  14.503  16.123  0.00  0.00    +0.242 C 
ENDBRANCH  17  18
BRANCH  20  21
ATOM     21  O   UNL     1      48.169  15.135  17.546  0.00  0.00    -0.315 OA
ATOM     22  C   UNL     1      48.151  14.055  18.482  0.00  0.00    +0.228 C 
ENDBRANCH  20  21
TORSDOF 4
ENDMDL
MODEL 6
REMARK VINA RESULT:      -4.4      1.831      5.864
REMARK  Name = ZINC04098841
REMARK  9 active torsions:
REMARK  status: ('A' for Active; 'I' for Inactive)
REMARK    1  A    between atoms: C1_1  and  N1_2
REMARK    2  A    between atoms: C11_13  and  O5_23
REMARK    3  A    between atoms: C12_14  and  O4_21
REMARK    4  A    between atoms: C13_15  and  O3_19
REMARK    5  A    between atoms: C14_16  and  O2_17
REMARK    6  A    between atoms: O2_17  and  C15_18
REMARK    7  A    between atoms: O3_19  and  C16_20
REMARK    8  A    between atoms: O4_21  and  C17_22
REMARK    9  A    between atoms: O5_23  and  C18_24
REMARK                            x       y       z     vdW  Elec       q    Type
REMARK                         _______ _______ _______ _____ _____    ______ ____
ROOT
ATOM      1  C   UNL     1      45.846  16.904  18.651  0.00  0.00    +0.319 C 
ATOM      2  N   UNL     1      47.225  16.751  18.181  0.00  0.00    -0.510 N 
ATOM      3  C   UNL     1      47.594  15.568  17.577  0.00  0.00    +0.217 A 
ATOM      4  C   UNL     1      46.660  14.546  17.418  0.00  0.00    -0.047 A 
ATOM      5  C   UNL     1      47.028  13.362  16.820  0.00  0.00    +0.087 A 
ATOM      6  C   UNL     1      48.323  13.173  16.360  0.00  0.00    -0.033 A 
ATOM      7  C   UNL     1      49.261  14.172  16.501  0.00  0.00    +0.119 A 
ATOM      8  C   UNL     1      48.904  15.376  17.111  0.00  0.00    -0.210 A 
ATOM      9  C   UNL     1      49.893  16.459  17.273  0.00  0.00    +0.438 A 
ATOM     10  C   UNL     1      49.444  17.698  17.924  0.00  0.00    -0.224 A 
ATOM     11  C   UNL     1      50.331  18.768  18.111  0.00  0.00    +0.189 A 
ATOM     14  C   UNL     1      49.887  19.926  18.727  0.00  0.00    +0.020 A 
ATOM     17  C   UNL     1      48.566  20.026  19.158  0.00  0.00    +0.148 A 
ATOM     20  C   UNL     1      47.682  18.973  18.977  0.00  0.00    +0.010 A 
ATOM     23  O   UNL     1      51.039  16.330  16.882  0.00  0.00    -0.445 OA
ATOM     24  C   UNL     1      48.110  17.799  18.359  0.00  0.00    +0.236 A 
ENDROOT
BRANCH  11  12
ATOM     12  O   UNL     1      51.620  18.668  17.692  0.00  0.00    -0.314 OA
ATOM     13  C   UNL     1      51.979  19.408  16.523  0.00  0.00    +0.249 C 
ENDBRANCH  11  12
BRANCH  14  15
ATOM     15  O   UNL     1      50.743  20.968  18.912  0.00  0.00    -0.312 OA
ATOM     16  C   UNL     1      51.593  20.915  20.059  0.00  0.00    +0.227 C 
ENDBRANCH  14  15
BRANCH  17  18
ATOM     18  O   UNL     1      48.139  21.166  19.763  0.00  0.00    -0.319 OA
ATOM     19  C   UNL     1      48.158  21.191  21.191  0.00  0.00    +0.242 C 
ENDBRANCH  17  18
BRANCH  20  21
ATOM     21  O   UNL     1      46.394  19.085  19.403  0.00  0.00    -0.315 OA
ATOM     22  C   UNL     1      45.558  20.010  18.704  0.00  0.00    +0.228 C 
ENDBRANCH  20  21
TORSDOF 4
ENDMDL
MODEL 7
REMARK VINA RESULT:      -4.4      1.579      4.292
REMARK  Name = ZINC04098841
REMARK  9 active torsions:
REMARK  status: ('A' for Active; 'I' for Inactive)
REMARK    1  A    between atoms: C1_1  and  N1_2
REMARK    2  A    between atoms: C11_13  and  O5_23
REMARK    3  A    between atoms: C12_14  and  O4_21
REMARK    4  A    between atoms: C13_15  and  O3_19
REMARK    5  A    between atoms: C14_16  and  O2_17
REMARK    6  A    between atoms: O2_17  and  C15_18
REMARK    7  A    between atoms: O3_19  and  C16_20
REMARK    8  A    between atoms: O4_21  and  C17_22
REMARK    9  A    between atoms: O5_23  and  C18_24
REMARK                            x       y       z     vdW  Elec       q    Type
REMARK                         _______ _______ _______ _____ _____    ______ ____
ROOT
ATOM      1  C   UNL     1      49.682  20.870  19.466  0.00  0.00    +0.319 C 
ATOM      2  N   UNL     1      49.035  19.602  19.121  0.00  0.00    -0.510 N 
ATOM      3  C   UNL     1      49.737  18.680  18.374  0.00  0.00    +0.217 A 
ATOM      4  C   UNL     1      51.040  18.960  17.967  0.00  0.00    -0.047 A 
ATOM      5  C   UNL     1      51.740  18.042  17.216  0.00  0.00    +0.087 A 
ATOM      6  C   UNL     1      51.166  16.828  16.865  0.00  0.00    -0.033 A 
ATOM      7  C   UNL     1      49.882  16.528  17.262  0.00  0.00    +0.119 A 
ATOM      8  C   UNL     1      49.158  17.451  18.018  0.00  0.00    -0.210 A 
ATOM      9  C   UNL     1      47.780  17.152  18.454  0.00  0.00    +0.438 A 
ATOM     10  C   UNL     1      47.080  18.171  19.248  0.00  0.00    -0.224 A 
ATOM     11  C   UNL     1      45.768  17.953  19.694  0.00  0.00    +0.189 A 
ATOM     14  C   UNL     1      45.128  18.927  20.441  0.00  0.00    +0.020 A 
ATOM     17  C   UNL     1      45.784  20.118  20.745  0.00  0.00    +0.148 A 
ATOM     20  C   UNL     1      47.080  20.342  20.308  0.00  0.00    +0.010 A 
ATOM     23  O   UNL     1      47.243  16.097  18.165  0.00  0.00    -0.445 OA
ATOM     24  C   UNL     1      47.742  19.374  19.556  0.00  0.00    +0.236 A 
ENDROOT
BRANCH  11  12
ATOM     12  O   UNL     1      45.130  16.791  19.395  0.00  0.00    -0.314 OA
ATOM     13  C   UNL     1      44.984  15.841  20.453  0.00  0.00    +0.249 C 
ENDBRANCH  11  12
BRANCH  14  15
ATOM     15  O   UNL     1      43.855  18.722  20.877  0.00  0.00    -0.312 OA
ATOM     16  C   UNL     1      42.797  19.083  19.988  0.00  0.00    +0.227 C 
ENDBRANCH  14  15
BRANCH  17  18
ATOM     18  O   UNL     1      45.146  21.070  21.478  0.00  0.00    -0.319 OA
ATOM     19  C   UNL     1      44.531  22.139  20.758  0.00  0.00    +0.242 C 
ENDBRANCH  17  18
BRANCH  20  21
ATOM     21  O   UNL     1      47.709  21.511  20.614  0.00  0.00    -0.315 OA
ATOM     22  C   UNL     1      48.049  21.725  21.985  0.00  0.00    +0.228 C 
ENDBRANCH  20  21
TORSDOF 4
ENDMDL
MODEL 8
REMARK VINA RESULT:      -4.4      1.780      4.631
REMARK  Name = ZINC04098841
REMARK  9 active torsions:
REMARK  status: ('A' for Active; 'I' for Inactive)
REMARK    1  A    between atoms: C1_1  and  N1_2
REMARK    2  A    between atoms: C11_13  and  O5_23
REMARK    3  A    between atoms: C12_14  and  O4_21
REMARK    4  A    between atoms: C13_15  and  O3_19
REMARK    5  A    between atoms: C14_16  and  O2_17
REMARK    6  A    between atoms: O2_17  and  C15_18
REMARK    7  A    between atoms: O3_19  and  C16_20
REMARK    8  A    between atoms: O4_21  and  C17_22
REMARK    9  A    between atoms: O5_23  and  C18_24
REMARK                            x       y       z     vdW  Elec       q    Type
REMARK                         _______ _______ _______ _____ _____    ______ ____
ROOT
ATOM      1  C   UNL     1      46.532  15.457  17.563  0.00  0.00    +0.319 C 
ATOM      2  N   UNL     1      47.848  16.094  17.654  0.00  0.00    -0.510 N 
ATOM      3  C   UNL     1      48.946  15.426  17.155  0.00  0.00    +0.217 A 
ATOM      4  C   UNL     1      48.791  14.170  16.573  0.00  0.00    -0.047 A 
ATOM      5  C   UNL     1      49.887  13.498  16.079  0.00  0.00    +0.087 A 
ATOM      6  C   UNL     1      51.153  14.064  16.144  0.00  0.00    -0.033 A 
ATOM      7  C   UNL     1      51.328  15.307  16.710  0.00  0.00    +0.119 A 
ATOM      8  C   UNL     1      50.227  15.997  17.220  0.00  0.00    -0.210 A 
ATOM      9  C   UNL     1      50.391  17.329  17.832  0.00  0.00    +0.438 A 
ATOM     10  C   UNL     1      49.187  17.995  18.347  0.00  0.00    -0.224 A 
ATOM     11  C   UNL     1      49.270  19.263  18.942  0.00  0.00    +0.189 A 
ATOM     14  C   UNL     1      48.122  19.872  19.420  0.00  0.00    +0.020 A 
ATOM     17  C   UNL     1      46.892  19.227  19.312  0.00  0.00    +0.148 A 
ATOM     20  C   UNL     1      46.801  17.974  18.725  0.00  0.00    +0.010 A 
ATOM     23  O   UNL     1      51.486  17.858  17.908  0.00  0.00    -0.445 OA
ATOM     24  C   UNL     1      47.944  17.344  18.237  0.00  0.00    +0.236 A 
ENDROOT
BRANCH  11  12
ATOM     12  O   UNL     1      50.471  19.890  19.048  0.00  0.00    -0.314 OA
ATOM     13  C   UNL     1      50.700  21.003  18.181  0.00  0.00    +0.249 C 
ENDBRANCH  11  12
BRANCH  14  15
ATOM     15  O   UNL     1      48.196  21.102  19.998  0.00  0.00    -0.312 OA
ATOM     16  C   UNL     1      48.390  21.144  21.413  0.00  0.00    +0.227 C 
ENDBRANCH  14  15
BRANCH  17  18
ATOM     18  O   UNL     1      45.770  19.832  19.786  0.00  0.00    -0.319 OA
ATOM     19  C   UNL     1      45.072  20.698  18.890  0.00  0.00    +0.242 C 
ENDBRANCH  17  18
BRANCH  20  21
ATOM     21  O   UNL     1      45.591  17.356  18.626  0.00  0.00    -0.315 OA
ATOM     22  C   UNL     1      44.966  16.953  19.846  0.00  0.00    +0.228 C 
ENDBRANCH  20  21
TORSDOF 4
ENDMDL
MODEL 9
REMARK VINA RESULT:      -4.2     20.297     22.438
REMARK  Name = ZINC04098841
REMARK  9 active torsions:
REMARK  status: ('A' for Active; 'I' for Inactive)
REMARK    1  A    between atoms: C1_1  and  N1_2
REMARK    2  A    between atoms: C11_13  and  O5_23
REMARK    3  A    between atoms: C12_14  and  O4_21
REMARK    4  A    between atoms: C13_15  and  O3_19
REMARK    5  A    between atoms: C14_16  and  O2_17
REMARK    6  A    between atoms: O2_17  and  C15_18
REMARK    7  A    between atoms: O3_19  and  C16_20
REMARK    8  A    between atoms: O4_21  and  C17_22
REMARK    9  A    between atoms: O5_23  and  C18_24
REMARK                            x       y       z     vdW  Elec       q    Type
REMARK                         _______ _______ _______ _____ _____    ______ ____
ROOT
ATOM      1  C   UNL     1      56.239  33.342   5.836  0.00  0.00    +0.319 C 
ATOM      2  N   UNL     1      55.785  32.825   4.542  0.00  0.00    -0.510 N 
ATOM      3  C   UNL     1      56.716  32.294   3.675  0.00  0.00    +0.217 A 
ATOM      4  C   UNL     1      58.061  32.250   4.039  0.00  0.00    -0.047 A 
ATOM      5  C   UNL     1      58.993  31.725   3.172  0.00  0.00    +0.087 A 
ATOM      6  C   UNL     1      58.609  31.225   1.936  0.00  0.00    -0.033 A 
ATOM      7  C   UNL     1      57.285  31.253   1.559  0.00  0.00    +0.119 A 
ATOM      8  C   UNL     1      56.329  31.787   2.425  0.00  0.00    -0.210 A 
ATOM      9  C   UNL     1      54.905  31.828   2.041  0.00  0.00    +0.438 A 
ATOM     10  C   UNL     1      53.957  32.405   3.004  0.00  0.00    -0.224 A 
ATOM     11  C   UNL     1      52.588  32.475   2.704  0.00  0.00    +0.189 A 
ATOM     14  C   UNL     1      51.713  33.023   3.627  0.00  0.00    +0.020 A 
ATOM     17  C   UNL     1      52.190  33.502   4.845  0.00  0.00    +0.148 A 
ATOM     20  C   UNL     1      53.541  33.436   5.149  0.00  0.00    +0.010 A 
ATOM     23  O   UNL     1      54.529  31.398   0.964  0.00  0.00    -0.445 OA
ATOM     24  C   UNL     1      54.439  32.888   4.235  0.00  0.00    +0.236 A 
ENDROOT
BRANCH  11  12
ATOM     12  O   UNL     1      52.125  32.009   1.515  0.00  0.00    -0.314 OA
ATOM     13  C   UNL     1      51.867  32.978   0.496  0.00  0.00    +0.249 C 
ENDBRANCH  11  12
BRANCH  14  15
ATOM     15  O   UNL     1      50.383  33.095   3.343  0.00  0.00    -0.312 OA
ATOM     16  C   UNL     1      49.855  34.385   3.029  0.00  0.00    +0.227 C 
ENDBRANCH  14  15
BRANCH  17  18
ATOM     18  O   UNL     1      51.323  34.039   5.744  0.00  0.00    -0.319 OA
ATOM     19  C   UNL     1      50.730  33.146   6.688  0.00  0.00    +0.242 C 
ENDBRANCH  17  18
BRANCH  20  21
ATOM     21  O   UNL     1      53.994  33.907   6.344  0.00  0.00    -0.315 OA
ATOM     22  C   UNL     1      53.904  35.317   6.561  0.00  0.00    +0.228 C 
ENDBRANCH  20  21
TORSDOF 4
ENDMDL
