MODEL 1
REMARK VINA RESULT:      -5.7      0.000      0.000
REMARK  Name = ZINC95486057
REMARK  6 active torsions:
REMARK  status: ('A' for Active; 'I' for Inactive)
REMARK    1  A    between atoms: C1_1  and  C2_2
REMARK    2  A    between atoms: C10_12  and  C13_18
REMARK    3  A    between atoms: C11_14  and  C12_17
REMARK    4  A    between atoms: C13_18  and  C14_20
REMARK    5  A    between atoms: C15_22  and  C16_24
REMARK    6  A    between atoms: C15_22  and  C17_25
REMARK                            x       y       z     vdW  Elec       q    Type
REMARK                         _______ _______ _______ _____ _____    ______ ____
ROOT
ATOM      1  C   UNL     1      51.419  21.415  19.167  0.00  0.00    +0.112 C 
ATOM      2  C   UNL     1      51.280  20.187  18.305  0.00  0.00    -0.027 A 
ATOM      3  C   UNL     1      52.357  19.748  17.558  0.00  0.00    -0.000 A 
ATOM      4  C   UNL     1      52.232  18.620  16.767  0.00  0.00    +0.065 A 
ATOM      5  C   UNL     1      51.037  17.931  16.730  0.00  0.00    +0.009 A 
ATOM      6  C   UNL     1      49.950  18.362  17.480  0.00  0.00    +0.125 A 
ATOM      7  O   UNL     1      48.794  17.644  17.430  0.00  0.00    -0.289 OA
ATOM      8  C   UNL     1      47.742  18.008  18.192  0.00  0.00    +0.503 C 
ATOM      9  O   UNL     1      46.602  17.806  17.849  0.00  0.00    -0.415 OA
ATOM     10  C   UNL     1      48.096  18.701  19.478  0.00  0.00    -0.030 C 
ATOM     11  C   UNL     1      46.952  19.413  20.218  0.00  0.00    -0.015 C 
ATOM     19  C   UNL     1      47.725  20.573  20.910  0.00  0.00    +0.206 C 
ATOM     20  C   UNL     1      46.881  21.851  20.881  0.00  0.00    +0.045 C 
ATOM     21  O   UNL     1      48.955  20.759  20.179  0.00  0.00    -0.330 OA
ATOM     22  C   UNL     1      48.899  19.957  19.033  0.00  0.00    +0.210 C 
ATOM     23  C   UNL     1      50.081  19.506  18.271  0.00  0.00    -0.144 A 
ENDROOT
BRANCH  11  12
ATOM     12  C   UNL     1      45.927  19.943  19.249  0.00  0.00    +0.382 C 
ATOM     18  O   UNL     1      46.211  20.853  18.507  0.00  0.00    -0.419 OA
BRANCH  12  13
ATOM     13  C   UNL     1      44.546  19.340  19.208  0.00  0.00    +0.091 C 
ATOM     14  C   UNL     1      43.360  20.249  19.537  0.00  0.00    +0.045 C 
ATOM     15  C   UNL     1      43.656  21.709  19.887  0.00  0.00    +0.090 C 
ATOM     16  C   UNL     1      42.162  19.624  20.253  0.00  0.00    +0.098 C 
ATOM     17  O   UNL     1      43.644  19.811  18.205  0.00  0.00    -0.312 OA
ENDBRANCH  12  13
ENDBRANCH  11  12
TORSDOF 2
ENDMDL
MODEL 2
REMARK VINA RESULT:      -5.7      2.738      3.542
REMARK  Name = ZINC95486057
REMARK  6 active torsions:
REMARK  status: ('A' for Active; 'I' for Inactive)
REMARK    1  A    between atoms: C1_1  and  C2_2
REMARK    2  A    between atoms: C10_12  and  C13_18
REMARK    3  A    between atoms: C11_14  and  C12_17
REMARK    4  A    between atoms: C13_18  and  C14_20
REMARK    5  A    between atoms: C15_22  and  C16_24
REMARK    6  A    between atoms: C15_22  and  C17_25
REMARK                            x       y       z     vdW  Elec       q    Type
REMARK                         _______ _______ _______ _____ _____    ______ ____
ROOT
ATOM      1  C   UNL     1      50.343  21.157  18.879  0.00  0.00    +0.112 C 
ATOM      2  C   UNL     1      50.868  20.253  17.794  0.00  0.00    -0.027 A 
ATOM      3  C   UNL     1      51.739  20.755  16.845  0.00  0.00    -0.000 A 
ATOM      4  C   UNL     1      52.223  19.928  15.849  0.00  0.00    +0.065 A 
ATOM      5  C   UNL     1      51.844  18.602  15.806  0.00  0.00    +0.009 A 
ATOM      6  C   UNL     1      50.972  18.086  16.757  0.00  0.00    +0.125 A 
ATOM      7  O   UNL     1      50.636  16.769  16.691  0.00  0.00    -0.289 OA
ATOM      8  C   UNL     1      49.837  16.230  17.636  0.00  0.00    +0.503 C 
ATOM      9  O   UNL     1      49.095  15.308  17.396  0.00  0.00    -0.415 OA
ATOM     10  C   UNL     1      49.924  16.877  18.990  0.00  0.00    -0.030 C 
ATOM     11  C   UNL     1      48.821  16.521  19.998  0.00  0.00    -0.015 C 
ATOM     19  C   UNL     1      48.744  17.834  20.828  0.00  0.00    +0.206 C 
ATOM     20  C   UNL     1      47.286  18.143  21.181  0.00  0.00    +0.045 C 
ATOM     21  O   UNL     1      49.305  18.885  20.013  0.00  0.00    -0.330 OA
ATOM     22  C   UNL     1      49.533  18.361  18.735  0.00  0.00    +0.210 C 
ATOM     23  C   UNL     1      50.481  18.930  17.757  0.00  0.00    -0.144 A 
ENDROOT
BRANCH  11  12
ATOM     12  C   UNL     1      47.516  16.240  19.299  0.00  0.00    +0.382 C 
ATOM     18  O   UNL     1      46.971  17.112  18.665  0.00  0.00    -0.419 OA
BRANCH  12  13
ATOM     13  C   UNL     1      46.889  14.873  19.392  0.00  0.00    +0.091 C 
ATOM     14  C   UNL     1      45.534  14.755  20.093  0.00  0.00    +0.045 C 
ATOM     15  C   UNL     1      44.907  16.034  20.652  0.00  0.00    +0.090 C 
ATOM     16  C   UNL     1      45.248  13.475  20.880  0.00  0.00    +0.098 C 
ATOM     17  O   UNL     1      45.676  14.647  18.673  0.00  0.00    -0.312 OA
ENDBRANCH  12  13
ENDBRANCH  11  12
TORSDOF 2
ENDMDL
MODEL 3
REMARK VINA RESULT:      -5.7      1.929      3.386
REMARK  Name = ZINC95486057
REMARK  6 active torsions:
REMARK  status: ('A' for Active; 'I' for Inactive)
REMARK    1  A    between atoms: C1_1  and  C2_2
REMARK    2  A    between atoms: C10_12  and  C13_18
REMARK    3  A    between atoms: C11_14  and  C12_17
REMARK    4  A    between atoms: C13_18  and  C14_20
REMARK    5  A    between atoms: C15_22  and  C16_24
REMARK    6  A    between atoms: C15_22  and  C17_25
REMARK                            x       y       z     vdW  Elec       q    Type
REMARK                         _______ _______ _______ _____ _____    ______ ____
ROOT
ATOM      1  C   UNL     1      49.955  16.674  18.654  0.00  0.00    +0.112 C 
ATOM      2  C   UNL     1      50.061  18.177  18.655  0.00  0.00    -0.027 A 
ATOM      3  C   UNL     1      51.286  18.779  18.436  0.00  0.00    -0.000 A 
ATOM      4  C   UNL     1      51.385  20.159  18.435  0.00  0.00    +0.065 A 
ATOM      5  C   UNL     1      50.262  20.932  18.645  0.00  0.00    +0.009 A 
ATOM      6  C   UNL     1      49.026  20.338  18.863  0.00  0.00    +0.125 A 
ATOM      7  O   UNL     1      47.939  21.136  19.050  0.00  0.00    -0.289 OA
ATOM      8  C   UNL     1      46.717  20.584  19.206  0.00  0.00    +0.503 C 
ATOM      9  O   UNL     1      45.856  21.112  19.869  0.00  0.00    -0.415 OA
ATOM     10  C   UNL     1      46.522  19.262  18.518  0.00  0.00    -0.030 C 
ATOM     11  C   UNL     1      45.282  18.449  18.922  0.00  0.00    -0.015 C 
ATOM     19  C   UNL     1      45.797  16.997  18.707  0.00  0.00    +0.206 C 
ATOM     20  C   UNL     1      45.262  16.084  19.813  0.00  0.00    +0.045 C 
ATOM     21  O   UNL     1      47.239  17.049  18.743  0.00  0.00    -0.330 OA
ATOM     22  C   UNL     1      47.612  18.340  19.134  0.00  0.00    +0.210 C 
ATOM     23  C   UNL     1      48.934  18.943  18.870  0.00  0.00    -0.144 A 
ENDROOT
BRANCH  11  12
ATOM     12  C   UNL     1      44.921  18.690  20.365  0.00  0.00    +0.382 C 
ATOM     18  O   UNL     1      45.677  18.347  21.242  0.00  0.00    -0.419 OA
BRANCH  12  13
ATOM     13  C   UNL     1      43.616  19.360  20.714  0.00  0.00    +0.091 C 
ATOM     14  C   UNL     1      42.626  18.582  21.584  0.00  0.00    +0.045 C 
ATOM     15  C   UNL     1      43.028  17.178  22.040  0.00  0.00    +0.090 C 
ATOM     16  C   UNL     1      41.133  18.796  21.329  0.00  0.00    +0.098 C 
ATOM     17  O   UNL     1      43.383  19.689  22.085  0.00  0.00    -0.312 OA
ENDBRANCH  12  13
ENDBRANCH  11  12
TORSDOF 2
ENDMDL
MODEL 4
REMARK VINA RESULT:      -5.7      2.968      4.923
REMARK  Name = ZINC95486057
REMARK  6 active torsions:
REMARK  status: ('A' for Active; 'I' for Inactive)
REMARK    1  A    between atoms: C1_1  and  C2_2
REMARK    2  A    between atoms: C10_12  and  C13_18
REMARK    3  A    between atoms: C11_14  and  C12_17
REMARK    4  A    between atoms: C13_18  and  C14_20
REMARK    5  A    between atoms: C15_22  and  C16_24
REMARK    6  A    between atoms: C15_22  and  C17_25
REMARK                            x       y       z     vdW  Elec       q    Type
REMARK                         _______ _______ _______ _____ _____    ______ ____
ROOT
ATOM      1  C   UNL     1      48.731  20.644  19.155  0.00  0.00    +0.112 C 
ATOM      2  C   UNL     1      49.966  20.196  18.418  0.00  0.00    -0.027 A 
ATOM      3  C   UNL     1      50.953  21.114  18.109  0.00  0.00    -0.000 A 
ATOM      4  C   UNL     1      52.088  20.704  17.434  0.00  0.00    +0.065 A 
ATOM      5  C   UNL     1      52.238  19.381  17.074  0.00  0.00    +0.009 A 
ATOM      6  C   UNL     1      51.255  18.449  17.382  0.00  0.00    +0.125 A 
ATOM      7  O   UNL     1      51.448  17.150  17.026  0.00  0.00    -0.289 OA
ATOM      8  C   UNL     1      50.535  16.216  17.364  0.00  0.00    +0.503 C 
ATOM      9  O   UNL     1      50.344  15.233  16.688  0.00  0.00    -0.415 OA
ATOM     10  C   UNL     1      49.764  16.503  18.622  0.00  0.00    -0.030 C 
ATOM     11  C   UNL     1      48.511  15.651  18.874  0.00  0.00    -0.015 C 
ATOM     19  C   UNL     1      47.625  16.656  19.666  0.00  0.00    +0.206 C 
ATOM     20  C   UNL     1      46.162  16.508  19.241  0.00  0.00    +0.045 C 
ATOM     21  O   UNL     1      48.112  17.980  19.364  0.00  0.00    -0.330 OA
ATOM     22  C   UNL     1      49.065  17.865  18.345  0.00  0.00    +0.210 C 
ATOM     23  C   UNL     1      50.107  18.871  18.059  0.00  0.00    -0.144 A 
ENDROOT
BRANCH  11  12
ATOM     12  C   UNL     1      47.855  15.252  17.578  0.00  0.00    +0.382 C 
ATOM     18  O   UNL     1      47.258  16.074  16.925  0.00  0.00    -0.419 OA
BRANCH  12  13
ATOM     13  C   UNL     1      47.944  13.826  17.096  0.00  0.00    +0.091 C 
ATOM     14  C   UNL     1      46.816  12.869  17.489  0.00  0.00    +0.045 C 
ATOM     15  C   UNL     1      45.675  13.425  18.345  0.00  0.00    +0.090 C 
ATOM     16  C   UNL     1      47.178  11.404  17.735  0.00  0.00    +0.098 C 
ATOM     17  O   UNL     1      46.962  13.379  16.160  0.00  0.00    -0.312 OA
ENDBRANCH  12  13
ENDBRANCH  11  12
TORSDOF 2
ENDMDL
MODEL 5
REMARK VINA RESULT:      -5.6      1.848      6.737
REMARK  Name = ZINC95486057
REMARK  6 active torsions:
REMARK  status: ('A' for Active; 'I' for Inactive)
REMARK    1  A    between atoms: C1_1  and  C2_2
REMARK    2  A    between atoms: C10_12  and  C13_18
REMARK    3  A    between atoms: C11_14  and  C12_17
REMARK    4  A    between atoms: C13_18  and  C14_20
REMARK    5  A    between atoms: C15_22  and  C16_24
REMARK    6  A    between atoms: C15_22  and  C17_25
REMARK                            x       y       z     vdW  Elec       q    Type
REMARK                         _______ _______ _______ _____ _____    ______ ____
ROOT
ATOM      1  C   UNL     1      43.122  17.883  22.505  0.00  0.00    +0.112 C 
ATOM      2  C   UNL     1      42.703  18.778  21.368  0.00  0.00    -0.027 A 
ATOM      3  C   UNL     1      41.365  18.890  21.040  0.00  0.00    -0.000 A 
ATOM      4  C   UNL     1      40.978  19.712  19.997  0.00  0.00    +0.065 A 
ATOM      5  C   UNL     1      41.925  20.425  19.291  0.00  0.00    +0.009 A 
ATOM      6  C   UNL     1      43.272  20.323  19.615  0.00  0.00    +0.125 A 
ATOM      7  O   UNL     1      44.174  21.056  18.906  0.00  0.00    -0.289 OA
ATOM      8  C   UNL     1      45.481  21.019  19.238  0.00  0.00    +0.503 C 
ATOM      9  O   UNL     1      46.354  21.170  18.417  0.00  0.00    -0.415 OA
ATOM     10  C   UNL     1      45.763  20.752  20.690  0.00  0.00    -0.030 C 
ATOM     11  C   UNL     1      47.209  20.384  21.057  0.00  0.00    -0.015 C 
ATOM     19  C   UNL     1      46.976  19.460  22.287  0.00  0.00    +0.206 C 
ATOM     20  C   UNL     1      47.968  18.294  22.259  0.00  0.00    +0.045 C 
ATOM     21  O   UNL     1      45.619  18.977  22.204  0.00  0.00    -0.330 OA
ATOM     22  C   UNL     1      45.098  19.373  20.967  0.00  0.00    +0.210 C 
ATOM     23  C   UNL     1      43.657  19.485  20.666  0.00  0.00    -0.144 A 
ENDROOT
BRANCH  11  12
ATOM     12  C   UNL     1      47.881  19.636  19.935  0.00  0.00    +0.382 C 
ATOM     18  O   UNL     1      47.555  18.500  19.685  0.00  0.00    -0.419 OA
BRANCH  12  13
ATOM     13  C   UNL     1      48.961  20.305  19.123  0.00  0.00    +0.091 C 
ATOM     14  C   UNL     1      50.416  20.020  19.500  0.00  0.00    +0.045 C 
ATOM     15  C   UNL     1      50.676  19.075  20.675  0.00  0.00    +0.090 C 
ATOM     16  C   UNL     1      51.434  21.146  19.316  0.00  0.00    +0.098 C 
ATOM     17  O   UNL     1      49.806  19.473  18.327  0.00  0.00    -0.312 OA
ENDBRANCH  12  13
ENDBRANCH  11  12
TORSDOF 2
ENDMDL
MODEL 6
REMARK VINA RESULT:      -5.2      2.925      6.180
REMARK  Name = ZINC95486057
REMARK  6 active torsions:
REMARK  status: ('A' for Active; 'I' for Inactive)
REMARK    1  A    between atoms: C1_1  and  C2_2
REMARK    2  A    between atoms: C10_12  and  C13_18
REMARK    3  A    between atoms: C11_14  and  C12_17
REMARK    4  A    between atoms: C13_18  and  C14_20
REMARK    5  A    between atoms: C15_22  and  C16_24
REMARK    6  A    between atoms: C15_22  and  C17_25
REMARK                            x       y       z     vdW  Elec       q    Type
REMARK                         _______ _______ _______ _____ _____    ______ ____
ROOT
ATOM      1  C   UNL     1      45.079  15.650  20.868  0.00  0.00    +0.112 C 
ATOM      2  C   UNL     1      45.563  14.805  19.718  0.00  0.00    -0.027 A 
ATOM      3  C   UNL     1      44.980  13.575  19.478  0.00  0.00    -0.000 A 
ATOM      4  C   UNL     1      45.422  12.798  18.423  0.00  0.00    +0.065 A 
ATOM      5  C   UNL     1      46.436  13.253  17.607  0.00  0.00    +0.009 A 
ATOM      6  C   UNL     1      47.026  14.490  17.837  0.00  0.00    +0.125 A 
ATOM      7  O   UNL     1      48.012  14.911  16.998  0.00  0.00    -0.289 OA
ATOM      8  C   UNL     1      48.562  16.132  17.165  0.00  0.00    +0.503 C 
ATOM      9  O   UNL     1      49.708  16.365  16.865  0.00  0.00    -0.415 OA
ATOM     10  C   UNL     1      47.652  17.164  17.770  0.00  0.00    -0.030 C 
ATOM     11  C   UNL     1      48.310  18.458  18.273  0.00  0.00    -0.015 C 
ATOM     19  C   UNL     1      47.360  18.838  19.445  0.00  0.00    +0.206 C 
ATOM     20  C   UNL     1      48.173  19.403  20.613  0.00  0.00    +0.045 C 
ATOM     21  O   UNL     1      46.670  17.634  19.839  0.00  0.00    -0.330 OA
ATOM     22  C   UNL     1      47.246  16.563  19.147  0.00  0.00    +0.210 C 
ATOM     23  C   UNL     1      46.580  15.267  18.909  0.00  0.00    -0.144 A 
ENDROOT
BRANCH  11  12
ATOM     12  C   UNL     1      49.709  18.198  18.769  0.00  0.00    +0.382 C 
ATOM     18  O   UNL     1      49.881  17.666  19.840  0.00  0.00    -0.419 OA
BRANCH  12  13
ATOM     13  C   UNL     1      50.894  18.601  17.929  0.00  0.00    +0.091 C 
ATOM     14  C   UNL     1      51.320  20.070  17.957  0.00  0.00    +0.045 C 
ATOM     15  C   UNL     1      50.514  21.030  18.835  0.00  0.00    +0.090 C 
ATOM     16  C   UNL     1      51.896  20.669  16.673  0.00  0.00    +0.098 C 
ATOM     17  O   UNL     1      52.071  19.042  18.609  0.00  0.00    -0.312 OA
ENDBRANCH  12  13
ENDBRANCH  11  12
TORSDOF 2
ENDMDL
MODEL 7
REMARK VINA RESULT:      -5.2      3.516      7.055
REMARK  Name = ZINC95486057
REMARK  6 active torsions:
REMARK  status: ('A' for Active; 'I' for Inactive)
REMARK    1  A    between atoms: C1_1  and  C2_2
REMARK    2  A    between atoms: C10_12  and  C13_18
REMARK    3  A    between atoms: C11_14  and  C12_17
REMARK    4  A    between atoms: C13_18  and  C14_20
REMARK    5  A    between atoms: C15_22  and  C16_24
REMARK    6  A    between atoms: C15_22  and  C17_25
REMARK                            x       y       z     vdW  Elec       q    Type
REMARK                         _______ _______ _______ _____ _____    ______ ____
ROOT
ATOM      1  C   UNL     1      43.566  17.114  21.901  0.00  0.00    +0.112 C 
ATOM      2  C   UNL     1      43.692  18.148  20.813  0.00  0.00    -0.027 A 
ATOM      3  C   UNL     1      42.882  19.269  20.834  0.00  0.00    -0.000 A 
ATOM      4  C   UNL     1      42.997  20.220  19.837  0.00  0.00    +0.065 A 
ATOM      5  C   UNL     1      43.923  20.056  18.828  0.00  0.00    +0.009 A 
ATOM      6  C   UNL     1      44.745  18.935  18.799  0.00  0.00    +0.125 A 
ATOM      7  O   UNL     1      45.658  18.818  17.796  0.00  0.00    -0.289 OA
ATOM      8  C   UNL     1      46.506  17.769  17.778  0.00  0.00    +0.503 C 
ATOM      9  O   UNL     1      46.936  17.311  16.746  0.00  0.00    -0.415 OA
ATOM     10  C   UNL     1      46.853  17.204  19.127  0.00  0.00    -0.030 C 
ATOM     11  C   UNL     1      47.544  15.832  19.146  0.00  0.00    -0.015 C 
ATOM     19  C   UNL     1      47.027  15.259  20.497  0.00  0.00    +0.206 C 
ATOM     20  C   UNL     1      46.741  13.762  20.352  0.00  0.00    +0.045 C 
ATOM     21  O   UNL     1      45.821  15.978  20.829  0.00  0.00    -0.330 OA
ATOM     22  C   UNL     1      45.484  16.780  19.732  0.00  0.00    +0.210 C 
ATOM     23  C   UNL     1      44.618  17.974  19.806  0.00  0.00    -0.144 A 
ENDROOT
BRANCH  11  12
ATOM     12  C   UNL     1      47.096  14.982  17.986  0.00  0.00    +0.382 C 
ATOM     18  O   UNL     1      45.974  14.536  17.962  0.00  0.00    -0.419 OA
BRANCH  12  13
ATOM     13  C   UNL     1      48.049  14.686  16.856  0.00  0.00    +0.091 C 
ATOM     14  C   UNL     1      48.694  13.300  16.811  0.00  0.00    +0.045 C 
ATOM     15  C   UNL     1      48.329  12.307  17.917  0.00  0.00    +0.090 C 
ATOM     16  C   UNL     1      50.120  13.195  16.269  0.00  0.00    +0.098 C 
ATOM     17  O   UNL     1      47.662  13.695  15.902  0.00  0.00    -0.312 OA
ENDBRANCH  12  13
ENDBRANCH  11  12
TORSDOF 2
ENDMDL
MODEL 8
REMARK VINA RESULT:      -5.2      3.329      7.277
REMARK  Name = ZINC95486057
REMARK  6 active torsions:
REMARK  status: ('A' for Active; 'I' for Inactive)
REMARK    1  A    between atoms: C1_1  and  C2_2
REMARK    2  A    between atoms: C10_12  and  C13_18
REMARK    3  A    between atoms: C11_14  and  C12_17
REMARK    4  A    between atoms: C13_18  and  C14_20
REMARK    5  A    between atoms: C15_22  and  C16_24
REMARK    6  A    between atoms: C15_22  and  C17_25
REMARK                            x       y       z     vdW  Elec       q    Type
REMARK                         _______ _______ _______ _____ _____    ______ ____
ROOT
ATOM      1  C   UNL     1      44.150  19.651  18.789  0.00  0.00    +0.112 C 
ATOM      2  C   UNL     1      43.799  18.797  19.980  0.00  0.00    -0.027 A 
ATOM      3  C   UNL     1      42.797  19.201  20.843  0.00  0.00    -0.000 A 
ATOM      4  C   UNL     1      42.473  18.418  21.936  0.00  0.00    +0.065 A 
ATOM      5  C   UNL     1      43.143  17.234  22.161  0.00  0.00    +0.009 A 
ATOM      6  C   UNL     1      44.149  16.817  21.299  0.00  0.00    +0.125 A 
ATOM      7  O   UNL     1      44.774  15.633  21.546  0.00  0.00    -0.289 OA
ATOM      8  C   UNL     1      45.715  15.178  20.692  0.00  0.00    +0.503 C 
ATOM      9  O   UNL     1      46.637  14.492  21.062  0.00  0.00    -0.415 OA
ATOM     10  C   UNL     1      45.540  15.607  19.262  0.00  0.00    -0.030 C 
ATOM     11  C   UNL     1      46.737  15.390  18.324  0.00  0.00    -0.015 C 
ATOM     19  C   UNL     1      46.548  16.568  17.325  0.00  0.00    +0.206 C 
ATOM     20  C   UNL     1      47.909  17.159  16.951  0.00  0.00    +0.045 C 
ATOM     21  O   UNL     1      45.727  17.556  17.984  0.00  0.00    -0.330 OA
ATOM     22  C   UNL     1      45.571  17.162  19.318  0.00  0.00    +0.210 C 
ATOM     23  C   UNL     1      44.477  17.616  20.200  0.00  0.00    -0.144 A 
ENDROOT
BRANCH  11  12
ATOM     12  C   UNL     1      48.041  15.513  19.069  0.00  0.00    +0.382 C 
ATOM     18  O   UNL     1      48.397  16.588  19.490  0.00  0.00    -0.419 OA
BRANCH  12  13
ATOM     13  C   UNL     1      48.901  14.295  19.290  0.00  0.00    +0.091 C 
ATOM     14  C   UNL     1      49.975  13.982  18.246  0.00  0.00    +0.045 C 
ATOM     15  C   UNL     1      50.103  14.927  17.049  0.00  0.00    +0.090 C 
ATOM     16  C   UNL     1      50.292  12.512  17.969  0.00  0.00    +0.098 C 
ATOM     17  O   UNL     1      50.292  14.500  19.541  0.00  0.00    -0.312 OA
ENDBRANCH  12  13
ENDBRANCH  11  12
TORSDOF 2
ENDMDL
MODEL 9
REMARK VINA RESULT:      -5.0     19.753     20.978
REMARK  Name = ZINC95486057
REMARK  6 active torsions:
REMARK  status: ('A' for Active; 'I' for Inactive)
REMARK    1  A    between atoms: C1_1  and  C2_2
REMARK    2  A    between atoms: C10_12  and  C13_18
REMARK    3  A    between atoms: C11_14  and  C12_17
REMARK    4  A    between atoms: C13_18  and  C14_20
REMARK    5  A    between atoms: C15_22  and  C16_24
REMARK    6  A    between atoms: C15_22  and  C17_25
REMARK                            x       y       z     vdW  Elec       q    Type
REMARK                         _______ _______ _______ _____ _____    ______ ____
ROOT
ATOM      1  C   UNL     1      57.878  33.866   5.673  0.00  0.00    +0.112 C 
ATOM      2  C   UNL     1      57.734  33.006   4.444  0.00  0.00    -0.027 A 
ATOM      3  C   UNL     1      58.862  32.600   3.755  0.00  0.00    -0.000 A 
ATOM      4  C   UNL     1      58.733  31.810   2.628  0.00  0.00    +0.065 A 
ATOM      5  C   UNL     1      57.482  31.421   2.196  0.00  0.00    +0.009 A 
ATOM      6  C   UNL     1      56.342  31.820   2.883  0.00  0.00    +0.125 A 
ATOM      7  O   UNL     1      55.127  31.401   2.435  0.00  0.00    -0.289 OA
ATOM      8  C   UNL     1      54.009  31.727   3.117  0.00  0.00    +0.503 C 
ATOM      9  O   UNL     1      52.943  31.872   2.568  0.00  0.00    -0.415 OA
ATOM     10  C   UNL     1      54.197  31.918   4.596  0.00  0.00    -0.030 C 
ATOM     11  C   UNL     1      53.046  32.594   5.358  0.00  0.00    -0.015 C 
ATOM     19  C   UNL     1      53.827  33.312   6.496  0.00  0.00    +0.206 C 
ATOM     20  C   UNL     1      53.204  34.683   6.770  0.00  0.00    +0.045 C 
ATOM     21  O   UNL     1      55.193  33.453   6.051  0.00  0.00    -0.330 OA
ATOM     22  C   UNL     1      55.249  33.058   4.709  0.00  0.00    +0.210 C 
ATOM     23  C   UNL     1      56.479  32.625   4.018  0.00  0.00    -0.144 A 
ENDROOT
BRANCH  11  12
ATOM     12  C   UNL     1      52.324  33.585   4.483  0.00  0.00    +0.382 C 
ATOM     18  O   UNL     1      52.953  34.369   3.813  0.00  0.00    -0.419 OA
BRANCH  12  13
ATOM     13  C   UNL     1      50.818  33.600   4.444  0.00  0.00    +0.091 C 
ATOM     14  C   UNL     1      50.142  33.959   3.120  0.00  0.00    +0.045 C 
ATOM     15  C   UNL     1      51.041  34.279   1.924  0.00  0.00    +0.090 C 
ATOM     16  C   UNL     1      48.819  34.724   3.179  0.00  0.00    +0.098 C 
ATOM     17  O   UNL     1      50.164  32.623   3.632  0.00  0.00    -0.312 OA
ENDBRANCH  12  13
ENDBRANCH  11  12
TORSDOF 2
ENDMDL
