MODEL 1
REMARK VINA RESULT:      -5.3      0.000      0.000
REMARK  Name = ZINC95486256
REMARK  20 active torsions:
REMARK  status: ('A' for Active; 'I' for Inactive)
REMARK    1  A    between atoms: C3_3  and  O9_37
REMARK    2  A    between atoms: C4_4  and  O8_36
REMARK    3  A    between atoms: C6_6  and  C7_7
REMARK    4  A    between atoms: C8_8  and  C9_9
REMARK    5  A    between atoms: C9_9  and  C10_10
REMARK    6  A    between atoms: C11_11  and  C12_12
REMARK    7  A    between atoms: C15_15  and  O2_19
REMARK    8  A    between atoms: C16_16  and  O1_18
REMARK    9  A    between atoms: O2_19  and  C18_20
REMARK   10  A    between atoms: C19_22  and  O7_35
REMARK   11  A    between atoms: C20_24  and  O6_34
REMARK   12  A    between atoms: C21_26  and  O5_33
REMARK   13  A    between atoms: C22_28  and  C23_31
REMARK   14  A    between atoms: C23_31  and  O4_32
REMARK   15  A    between atoms: O9_37  and  C24_38
REMARK   16  A    between atoms: C26_41  and  O14_51
REMARK   17  A    between atoms: C27_43  and  O13_50
REMARK   18  A    between atoms: C28_45  and  C29_47
REMARK   19  A    between atoms: C28_45  and  O12_49
REMARK   20  A    between atoms: C29_47  and  O11_48
REMARK                            x       y       z     vdW  Elec       q    Type
REMARK                         _______ _______ _______ _____ _____    ______ ____
ROOT
ATOM     27  C   UNL     1      51.110  21.019  18.889  0.00  0.00    +0.221 C 
ENDROOT
BRANCH  27  26
ATOM     25  C   UNL     1      51.482  18.606  18.633  0.00  0.00    +0.019 C 
ATOM     26  C   UNL     1      51.869  19.750  19.180  0.00  0.00    -0.031 C 
BRANCH  25  24
ATOM      1  C   UNL     1      53.444  17.415  19.596  0.00  0.00    +0.047 A 
ATOM      2  C   UNL     1      54.138  16.252  19.862  0.00  0.00    -0.044 A 
ATOM      3  C   UNL     1      53.627  15.029  19.456  0.00  0.00    +0.111 A 
ATOM     20  C   UNL     1      52.412  14.968  18.778  0.00  0.00    +0.079 A 
ATOM     23  C   UNL     1      51.712  16.130  18.508  0.00  0.00    +0.035 A 
ATOM     24  C   UNL     1      52.226  17.361  18.918  0.00  0.00    -0.080 A 
BRANCH  20  21
ATOM     21  O   UNL     1      51.914  13.767  18.381  0.00  0.00    -0.479 OA
ATOM     22  H   UNL     1      50.981  13.635  18.600  0.00  0.00    +0.382 HD
ENDBRANCH  20  21
BRANCH   3   4
ATOM      4  O   UNL     1      54.314  13.885  19.721  0.00  0.00    -0.285 OA
BRANCH   4   5
ATOM      5  C   UNL     1      54.401  13.484  21.089  0.00  0.00    +0.355 C 
ATOM      6  C   UNL     1      54.192  11.970  21.191  0.00  0.00    +0.024 C 
ATOM      7  C   UNL     1      55.309  11.256  20.425  0.00  0.00    +0.143 C 
ATOM     10  C   UNL     1      56.663  11.694  20.991  0.00  0.00    +0.186 C 
ATOM     13  C   UNL     1      56.777  13.218  20.897  0.00  0.00    +0.309 C 
ATOM     19  O   UNL     1      55.691  13.821  21.603  0.00  0.00    -0.383 OA
BRANCH   7   8
ATOM      8  O   UNL     1      55.234  11.599  19.040  0.00  0.00    -0.519 OA
ATOM      9  H   UNL     1      55.085  12.540  18.876  0.00  0.00    +0.375 HD
ENDBRANCH   7   8
BRANCH  10  11
ATOM     11  O   UNL     1      56.762  11.290  22.358  0.00  0.00    -0.544 OA
ATOM     12  H   UNL     1      56.905  12.021  22.975  0.00  0.00    +0.388 HD
ENDBRANCH  10  11
BRANCH  13  14
ATOM     14  O   UNL     1      56.732  13.615  19.525  0.00  0.00    -0.522 OA
ATOM     15  H   UNL     1      57.574  13.948  19.183  0.00  0.00    +0.383 HD
ENDBRANCH  13  14
BRANCH  13  16
ATOM     16  C   UNL     1      58.102  13.670  21.515  0.00  0.00    +0.200 C 
BRANCH  16  17
ATOM     17  O   UNL     1      58.650  14.738  20.739  0.00  0.00    -0.564 OA
ATOM     18  H   UNL     1      58.289  15.608  20.958  0.00  0.00    +0.384 HD
ENDBRANCH  16  17
ENDBRANCH  13  16
ENDBRANCH   4   5
ENDBRANCH   3   4
ENDBRANCH  25  24
ENDBRANCH  27  26
BRANCH  27  28
ATOM     28  C   UNL     1      49.665  20.761  18.999  0.00  0.00    -0.151 C 
ATOM     29  C   UNL     1      48.512  20.555  19.087  0.00  0.00    -0.139 C 
BRANCH  29  30
ATOM     30  C   UNL     1      47.106  20.305  19.194  0.00  0.00    -0.000 A 
ATOM     31  C   UNL     1      46.496  19.377  18.350  0.00  0.00    +0.067 A 
ATOM     32  C   UNL     1      45.141  19.137  18.454  0.00  0.00    -0.029 A 
ATOM     33  C   UNL     1      44.383  19.816  19.396  0.00  0.00    +0.114 A 
ATOM     50  C   UNL     1      44.987  20.745  20.240  0.00  0.00    +0.081 A 
ATOM     53  C   UNL     1      46.345  20.986  20.146  0.00  0.00    +0.048 A 
BRANCH  50  51
ATOM     51  O   UNL     1      44.241  21.411  21.163  0.00  0.00    -0.480 OA
ATOM     52  H   UNL     1      43.868  20.844  21.850  0.00  0.00    +0.385 HD
ENDBRANCH  50  51
BRANCH  33  34
ATOM     34  O   UNL     1      43.049  19.577  19.495  0.00  0.00    -0.302 OA
BRANCH  34  35
ATOM     35  C   UNL     1      42.272  19.731  18.304  0.00  0.00    +0.322 C 
ATOM     36  C   UNL     1      40.840  19.258  18.565  0.00  0.00    +0.141 C 
ATOM     39  C   UNL     1      40.208  20.138  19.649  0.00  0.00    +0.155 C 
ATOM     42  C   UNL     1      40.265  21.601  19.200  0.00  0.00    +0.166 C 
ATOM     45  C   UNL     1      41.720  21.984  18.915  0.00  0.00    +0.202 C 
ATOM     49  O   UNL     1      42.256  21.108  17.921  0.00  0.00    -0.354 OA
BRANCH  36  37
ATOM     37  O   UNL     1      40.076  19.361  17.362  0.00  0.00    -0.523 OA
ATOM     38  H   UNL     1      40.395  20.041  16.751  0.00  0.00    +0.382 HD
ENDBRANCH  36  37
BRANCH  39  40
ATOM     40  O   UNL     1      40.932  19.983  20.872  0.00  0.00    -0.532 OA
ATOM     41  H   UNL     1      41.275  20.811  21.234  0.00  0.00    +0.385 HD
ENDBRANCH  39  40
BRANCH  42  43
ATOM     43  O   UNL     1      39.485  21.767  18.014  0.00  0.00    -0.529 OA
ATOM     44  H   UNL     1      39.878  21.369  17.227  0.00  0.00    +0.378 HD
ENDBRANCH  42  43
BRANCH  45  46
ATOM     46  C   UNL     1      41.779  23.426  18.410  0.00  0.00    +0.211 C 
BRANCH  46  47
ATOM     47  O   UNL     1      43.004  24.029  18.829  0.00  0.00    -0.565 OA
ATOM     48  H   UNL     1      43.354  23.674  19.657  0.00  0.00    +0.381 HD
ENDBRANCH  46  47
ENDBRANCH  45  46
ENDBRANCH  34  35
ENDBRANCH  33  34
ENDBRANCH  29  30
ENDBRANCH  27  28
TORSDOF 20
ENDMDL
MODEL 2
REMARK VINA RESULT:      -5.1      2.032     13.105
REMARK  Name = ZINC95486256
REMARK  20 active torsions:
REMARK  status: ('A' for Active; 'I' for Inactive)
REMARK    1  A    between atoms: C3_3  and  O9_37
REMARK    2  A    between atoms: C4_4  and  O8_36
REMARK    3  A    between atoms: C6_6  and  C7_7
REMARK    4  A    between atoms: C8_8  and  C9_9
REMARK    5  A    between atoms: C9_9  and  C10_10
REMARK    6  A    between atoms: C11_11  and  C12_12
REMARK    7  A    between atoms: C15_15  and  O2_19
REMARK    8  A    between atoms: C16_16  and  O1_18
REMARK    9  A    between atoms: O2_19  and  C18_20
REMARK   10  A    between atoms: C19_22  and  O7_35
REMARK   11  A    between atoms: C20_24  and  O6_34
REMARK   12  A    between atoms: C21_26  and  O5_33
REMARK   13  A    between atoms: C22_28  and  C23_31
REMARK   14  A    between atoms: C23_31  and  O4_32
REMARK   15  A    between atoms: O9_37  and  C24_38
REMARK   16  A    between atoms: C26_41  and  O14_51
REMARK   17  A    between atoms: C27_43  and  O13_50
REMARK   18  A    between atoms: C28_45  and  C29_47
REMARK   19  A    between atoms: C28_45  and  O12_49
REMARK   20  A    between atoms: C29_47  and  O11_48
REMARK                            x       y       z     vdW  Elec       q    Type
REMARK                         _______ _______ _______ _____ _____    ______ ____
ROOT
ATOM     27  C   UNL     1      51.880  21.235  21.967  0.00  0.00    +0.221 C 
ENDROOT
BRANCH  27  26
ATOM     25  C   UNL     1      49.943  20.754  20.538  0.00  0.00    +0.019 C 
ATOM     26  C   UNL     1      50.410  21.312  21.647  0.00  0.00    -0.031 C 
BRANCH  25  24
ATOM      1  C   UNL     1      48.003  20.213  19.074  0.00  0.00    +0.047 A 
ATOM      2  C   UNL     1      46.656  20.283  18.783  0.00  0.00    -0.044 A 
ATOM      3  C   UNL     1      45.795  20.962  19.629  0.00  0.00    +0.111 A 
ATOM     20  C   UNL     1      46.285  21.579  20.778  0.00  0.00    +0.079 A 
ATOM     23  C   UNL     1      47.634  21.514  21.076  0.00  0.00    +0.035 A 
ATOM     24  C   UNL     1      48.501  20.828  20.223  0.00  0.00    -0.080 A 
BRANCH  20  21
ATOM     21  O   UNL     1      45.438  22.246  21.607  0.00  0.00    -0.479 OA
ATOM     22  H   UNL     1      44.747  22.742  21.146  0.00  0.00    +0.382 HD
ENDBRANCH  20  21
BRANCH   3   4
ATOM      4  O   UNL     1      44.468  21.028  19.338  0.00  0.00    -0.285 OA
BRANCH   4   5
ATOM      5  C   UNL     1      43.879  19.873  18.738  0.00  0.00    +0.355 C 
ATOM      6  C   UNL     1      43.670  18.794  19.805  0.00  0.00    +0.024 C 
ATOM      7  C   UNL     1      42.696  19.316  20.864  0.00  0.00    +0.143 C 
ATOM     10  C   UNL     1      41.384  19.719  20.181  0.00  0.00    +0.186 C 
ATOM     13  C   UNL     1      41.681  20.762  19.101  0.00  0.00    +0.309 C 
ATOM     19  O   UNL     1      42.618  20.224  18.165  0.00  0.00    -0.383 OA
BRANCH   7   8
ATOM      8  O   UNL     1      43.264  20.452  21.519  0.00  0.00    -0.519 OA
ATOM      9  H   UNL     1      44.075  20.258  22.009  0.00  0.00    +0.375 HD
ENDBRANCH   7   8
BRANCH  10  11
ATOM     11  O   UNL     1      40.784  18.568  19.585  0.00  0.00    -0.544 OA
ATOM     12  H   UNL     1      41.319  18.160  18.890  0.00  0.00    +0.388 HD
ENDBRANCH  10  11
BRANCH  13  14
ATOM     14  O   UNL     1      42.232  21.933  19.707  0.00  0.00    -0.522 OA
ATOM     15  H   UNL     1      42.188  22.723  19.149  0.00  0.00    +0.383 HD
ENDBRANCH  13  14
BRANCH  13  16
ATOM     16  C   UNL     1      40.384  21.125  18.373  0.00  0.00    +0.200 C 
BRANCH  16  17
ATOM     17  O   UNL     1      40.407  22.511  18.024  0.00  0.00    -0.564 OA
ATOM     18  H   UNL     1      40.842  22.696  17.180  0.00  0.00    +0.384 HD
ENDBRANCH  16  17
ENDBRANCH  13  16
ENDBRANCH   4   5
ENDBRANCH   3   4
ENDBRANCH  25  24
ENDBRANCH  27  26
BRANCH  27  28
ATOM     28  C   UNL     1      52.290  19.823  22.049  0.00  0.00    -0.151 C 
ATOM     29  C   UNL     1      52.618  18.697  22.114  0.00  0.00    -0.139 C 
BRANCH  29  30
ATOM     30  C   UNL     1      53.016  17.325  22.195  0.00  0.00    -0.000 A 
ATOM     31  C   UNL     1      54.370  16.988  22.170  0.00  0.00    +0.067 A 
ATOM     32  C   UNL     1      54.753  15.665  22.247  0.00  0.00    -0.029 A 
ATOM     33  C   UNL     1      53.796  14.667  22.349  0.00  0.00    +0.114 A 
ATOM     50  C   UNL     1      52.443  14.997  22.374  0.00  0.00    +0.081 A 
ATOM     53  C   UNL     1      52.052  16.322  22.303  0.00  0.00    +0.048 A 
BRANCH  50  51
ATOM     51  O   UNL     1      51.505  14.016  22.473  0.00  0.00    -0.480 OA
ATOM     52  H   UNL     1      50.619  14.290  22.202  0.00  0.00    +0.385 HD
ENDBRANCH  50  51
BRANCH  33  34
ATOM     34  O   UNL     1      54.177  13.365  22.425  0.00  0.00    -0.302 OA
BRANCH  34  35
ATOM     35  C   UNL     1      55.055  12.886  21.402  0.00  0.00    +0.322 C 
ATOM     36  C   UNL     1      55.307  11.390  21.607  0.00  0.00    +0.141 C 
ATOM     39  C   UNL     1      53.982  10.632  21.474  0.00  0.00    +0.155 C 
ATOM     42  C   UNL     1      53.369  10.937  20.104  0.00  0.00    +0.166 C 
ATOM     45  C   UNL     1      53.191  12.451  19.957  0.00  0.00    +0.202 C 
ATOM     49  O   UNL     1      54.455  13.096  20.122  0.00  0.00    -0.354 OA
BRANCH  36  37
ATOM     37  O   UNL     1      56.227  10.921  20.619  0.00  0.00    -0.523 OA
ATOM     38  H   UNL     1      55.835  10.318  19.971  0.00  0.00    +0.382 HD
ENDBRANCH  36  37
BRANCH  39  40
ATOM     40  O   UNL     1      53.086  11.053  22.505  0.00  0.00    -0.532 OA
ATOM     41  H   UNL     1      52.857  11.992  22.469  0.00  0.00    +0.385 HD
ENDBRANCH  39  40
BRANCH  42  43
ATOM     43  O   UNL     1      54.236  10.455  19.075  0.00  0.00    -0.529 OA
ATOM     44  H   UNL     1      54.536   9.546  19.208  0.00  0.00    +0.378 HD
ENDBRANCH  42  43
BRANCH  45  46
ATOM     46  C   UNL     1      52.634  12.767  18.569  0.00  0.00    +0.211 C 
BRANCH  46  47
ATOM     47  O   UNL     1      51.973  11.613  18.045  0.00  0.00    -0.565 OA
ATOM     48  H   UNL     1      51.779  11.667  17.099  0.00  0.00    +0.381 HD
ENDBRANCH  46  47
ENDBRANCH  45  46
ENDBRANCH  34  35
ENDBRANCH  33  34
ENDBRANCH  29  30
ENDBRANCH  27  28
TORSDOF 20
ENDMDL
MODEL 3
REMARK VINA RESULT:      -5.0      1.253     13.524
REMARK  Name = ZINC95486256
REMARK  20 active torsions:
REMARK  status: ('A' for Active; 'I' for Inactive)
REMARK    1  A    between atoms: C3_3  and  O9_37
REMARK    2  A    between atoms: C4_4  and  O8_36
REMARK    3  A    between atoms: C6_6  and  C7_7
REMARK    4  A    between atoms: C8_8  and  C9_9
REMARK    5  A    between atoms: C9_9  and  C10_10
REMARK    6  A    between atoms: C11_11  and  C12_12
REMARK    7  A    between atoms: C15_15  and  O2_19
REMARK    8  A    between atoms: C16_16  and  O1_18
REMARK    9  A    between atoms: O2_19  and  C18_20
REMARK   10  A    between atoms: C19_22  and  O7_35
REMARK   11  A    between atoms: C20_24  and  O6_34
REMARK   12  A    between atoms: C21_26  and  O5_33
REMARK   13  A    between atoms: C22_28  and  C23_31
REMARK   14  A    between atoms: C23_31  and  O4_32
REMARK   15  A    between atoms: O9_37  and  C24_38
REMARK   16  A    between atoms: C26_41  and  O14_51
REMARK   17  A    between atoms: C27_43  and  O13_50
REMARK   18  A    between atoms: C28_45  and  C29_47
REMARK   19  A    between atoms: C28_45  and  O12_49
REMARK   20  A    between atoms: C29_47  and  O11_48
REMARK                            x       y       z     vdW  Elec       q    Type
REMARK                         _______ _______ _______ _____ _____    ______ ____
ROOT
ATOM     27  C   UNL     1      51.865  20.935  18.575  0.00  0.00    +0.221 C 
ENDROOT
BRANCH  27  26
ATOM     25  C   UNL     1      49.604  20.006  18.798  0.00  0.00    +0.019 C 
ATOM     26  C   UNL     1      50.367  21.081  18.653  0.00  0.00    -0.031 C 
BRANCH  25  24
ATOM      1  C   UNL     1      47.308  19.256  18.193  0.00  0.00    +0.047 A 
ATOM      2  C   UNL     1      45.937  19.390  18.266  0.00  0.00    -0.044 A 
ATOM      3  C   UNL     1      45.377  20.411  19.018  0.00  0.00    +0.111 A 
ATOM     20  C   UNL     1      46.196  21.306  19.702  0.00  0.00    +0.079 A 
ATOM     23  C   UNL     1      47.571  21.178  19.632  0.00  0.00    +0.035 A 
ATOM     24  C   UNL     1      48.134  20.149  18.875  0.00  0.00    -0.080 A 
BRANCH  20  21
ATOM     21  O   UNL     1      45.643  22.308  20.438  0.00  0.00    -0.479 OA
ATOM     22  H   UNL     1      44.828  22.057  20.893  0.00  0.00    +0.382 HD
ENDBRANCH  20  21
BRANCH   3   4
ATOM      4  O   UNL     1      44.024  20.539  19.088  0.00  0.00    -0.285 OA
BRANCH   4   5
ATOM      5  C   UNL     1      43.250  19.356  18.884  0.00  0.00    +0.355 C 
ATOM      6  C   UNL     1      43.210  18.542  20.179  0.00  0.00    +0.024 C 
ATOM      7  C   UNL     1      42.520  19.366  21.270  0.00  0.00    +0.143 C 
ATOM     10  C   UNL     1      41.120  19.760  20.787  0.00  0.00    +0.186 C 
ATOM     13  C   UNL     1      41.240  20.527  19.469  0.00  0.00    +0.309 C 
ATOM     19  O   UNL     1      41.920  19.716  18.507  0.00  0.00    -0.383 OA
BRANCH   7   8
ATOM      8  O   UNL     1      43.284  20.544  21.536  0.00  0.00    -0.519 OA
ATOM      9  H   UNL     1      42.749  21.335  21.682  0.00  0.00    +0.375 HD
ENDBRANCH   7   8
BRANCH  10  11
ATOM     11  O   UNL     1      40.336  18.583  20.587  0.00  0.00    -0.544 OA
ATOM     12  H   UNL     1      39.601  18.487  21.209  0.00  0.00    +0.388 HD
ENDBRANCH  10  11
BRANCH  13  14
ATOM     14  O   UNL     1      41.980  21.731  19.683  0.00  0.00    -0.522 OA
ATOM     15  H   UNL     1      42.703  21.641  20.321  0.00  0.00    +0.383 HD
ENDBRANCH  13  14
BRANCH  13  16
ATOM     16  C   UNL     1      39.843  20.872  18.949  0.00  0.00    +0.200 C 
BRANCH  16  17
ATOM     17  O   UNL     1      39.901  22.087  18.198  0.00  0.00    -0.564 OA
ATOM     18  H   UNL     1      39.129  22.238  17.636  0.00  0.00    +0.384 HD
ENDBRANCH  16  17
ENDBRANCH  13  16
ENDBRANCH   4   5
ENDBRANCH   3   4
ENDBRANCH  25  24
ENDBRANCH  27  26
BRANCH  27  28
ATOM     28  C   UNL     1      52.231  19.526  18.796  0.00  0.00    -0.151 C 
ATOM     29  C   UNL     1      52.523  18.402  18.972  0.00  0.00    -0.139 C 
BRANCH  29  30
ATOM     30  C   UNL     1      52.879  17.032  19.187  0.00  0.00    -0.000 A 
ATOM     31  C   UNL     1      53.953  16.711  20.018  0.00  0.00    +0.067 A 
ATOM     32  C   UNL     1      54.295  15.391  20.224  0.00  0.00    -0.029 A 
ATOM     33  C   UNL     1      53.575  14.379  19.606  0.00  0.00    +0.114 A 
ATOM     50  C   UNL     1      52.503  14.694  18.775  0.00  0.00    +0.081 A 
ATOM     53  C   UNL     1      52.150  16.015  18.569  0.00  0.00    +0.048 A 
BRANCH  50  51
ATOM     51  O   UNL     1      51.798  13.700  18.169  0.00  0.00    -0.480 OA
ATOM     52  H   UNL     1      52.203  12.827  18.247  0.00  0.00    +0.385 HD
ENDBRANCH  50  51
BRANCH  33  34
ATOM     34  O   UNL     1      53.916  13.080  19.811  0.00  0.00    -0.302 OA
BRANCH  34  35
ATOM     35  C   UNL     1      53.872  12.603  21.159  0.00  0.00    +0.322 C 
ATOM     36  C   UNL     1      53.617  11.094  21.158  0.00  0.00    +0.141 C 
ATOM     39  C   UNL     1      54.779  10.387  20.453  0.00  0.00    +0.155 C 
ATOM     42  C   UNL     1      56.088  10.756  21.157  0.00  0.00    +0.166 C 
ATOM     45  C   UNL     1      56.248  12.279  21.158  0.00  0.00    +0.202 C 
ATOM     49  O   UNL     1      55.119  12.874  21.801  0.00  0.00    -0.354 OA
BRANCH  36  37
ATOM     37  O   UNL     1      53.519  10.625  22.504  0.00  0.00    -0.523 OA
ATOM     38  H   UNL     1      52.685  10.852  22.939  0.00  0.00    +0.382 HD
ENDBRANCH  36  37
BRANCH  39  40
ATOM     40  O   UNL     1      54.835  10.806  19.087  0.00  0.00    -0.532 OA
ATOM     41  H   UNL     1      54.047  11.280  18.788  0.00  0.00    +0.385 HD
ENDBRANCH  39  40
BRANCH  42  43
ATOM     43  O   UNL     1      56.058  10.277  22.503  0.00  0.00    -0.529 OA
ATOM     44  H   UNL     1      56.032  10.977  23.169  0.00  0.00    +0.378 HD
ENDBRANCH  42  43
BRANCH  45  46
ATOM     46  C   UNL     1      57.524  12.658  21.912  0.00  0.00    +0.211 C 
BRANCH  46  47
ATOM     47  O   UNL     1      58.303  13.550  21.112  0.00  0.00    -0.565 OA
ATOM     48  H   UNL     1      57.856  13.853  20.310  0.00  0.00    +0.381 HD
ENDBRANCH  46  47
ENDBRANCH  45  46
ENDBRANCH  34  35
ENDBRANCH  33  34
ENDBRANCH  29  30
ENDBRANCH  27  28
TORSDOF 20
ENDMDL
MODEL 4
REMARK VINA RESULT:      -4.8      2.140     12.630
REMARK  Name = ZINC95486256
REMARK  20 active torsions:
REMARK  status: ('A' for Active; 'I' for Inactive)
REMARK    1  A    between atoms: C3_3  and  O9_37
REMARK    2  A    between atoms: C4_4  and  O8_36
REMARK    3  A    between atoms: C6_6  and  C7_7
REMARK    4  A    between atoms: C8_8  and  C9_9
REMARK    5  A    between atoms: C9_9  and  C10_10
REMARK    6  A    between atoms: C11_11  and  C12_12
REMARK    7  A    between atoms: C15_15  and  O2_19
REMARK    8  A    between atoms: C16_16  and  O1_18
REMARK    9  A    between atoms: O2_19  and  C18_20
REMARK   10  A    between atoms: C19_22  and  O7_35
REMARK   11  A    between atoms: C20_24  and  O6_34
REMARK   12  A    between atoms: C21_26  and  O5_33
REMARK   13  A    between atoms: C22_28  and  C23_31
REMARK   14  A    between atoms: C23_31  and  O4_32
REMARK   15  A    between atoms: O9_37  and  C24_38
REMARK   16  A    between atoms: C26_41  and  O14_51
REMARK   17  A    between atoms: C27_43  and  O13_50
REMARK   18  A    between atoms: C28_45  and  C29_47
REMARK   19  A    between atoms: C28_45  and  O12_49
REMARK   20  A    between atoms: C29_47  and  O11_48
REMARK                            x       y       z     vdW  Elec       q    Type
REMARK                         _______ _______ _______ _____ _____    ______ ____
ROOT
ATOM     27  C   UNL     1      51.858  21.004  20.583  0.00  0.00    +0.221 C 
ENDROOT
BRANCH  27  26
ATOM     25  C   UNL     1      49.675  20.263  19.743  0.00  0.00    +0.019 C 
ATOM     26  C   UNL     1      50.376  21.186  20.387  0.00  0.00    -0.031 C 
BRANCH  25  24
ATOM      1  C   UNL     1      47.547  19.698  18.580  0.00  0.00    +0.047 A 
ATOM      2  C   UNL     1      46.188  19.865  18.403  0.00  0.00    -0.044 A 
ATOM      3  C   UNL     1      45.489  20.767  19.188  0.00  0.00    +0.111 A 
ATOM     20  C   UNL     1      46.155  21.511  20.160  0.00  0.00    +0.079 A 
ATOM     23  C   UNL     1      47.516  21.350  20.343  0.00  0.00    +0.035 A 
ATOM     24  C   UNL     1      48.220  20.440  19.551  0.00  0.00    -0.080 A 
BRANCH  20  21
ATOM     21  O   UNL     1      45.466  22.397  20.929  0.00  0.00    -0.479 OA
ATOM     22  H   UNL     1      45.977  22.758  21.667  0.00  0.00    +0.382 HD
ENDBRANCH  20  21
BRANCH   3   4
ATOM      4  O   UNL     1      44.150  20.927  19.011  0.00  0.00    -0.285 OA
BRANCH   4   5
ATOM      5  C   UNL     1      43.412  19.781  18.585  0.00  0.00    +0.355 C 
ATOM      6  C   UNL     1      43.297  18.788  19.744  0.00  0.00    +0.024 C 
ATOM      7  C   UNL     1      42.521  19.441  20.891  0.00  0.00    +0.143 C 
ATOM     10  C   UNL     1      41.150  19.891  20.374  0.00  0.00    +0.186 C 
ATOM     13  C   UNL     1      41.347  20.841  19.191  0.00  0.00    +0.309 C 
ATOM     19  O   UNL     1      42.104  20.183  18.172  0.00  0.00    -0.383 OA
BRANCH   7   8
ATOM      8  O   UNL     1      43.246  20.573  21.376  0.00  0.00    -0.519 OA
ATOM      9  H   UNL     1      43.515  20.501  22.301  0.00  0.00    +0.375 HD
ENDBRANCH   7   8
BRANCH  10  11
ATOM     11  O   UNL     1      40.402  18.750  19.952  0.00  0.00    -0.544 OA
ATOM     12  H   UNL     1      40.938  17.957  19.812  0.00  0.00    +0.388 HD
ENDBRANCH  10  11
BRANCH  13  14
ATOM     14  O   UNL     1      42.050  22.007  19.627  0.00  0.00    -0.522 OA
ATOM     15  H   UNL     1      42.355  22.576  18.906  0.00  0.00    +0.383 HD
ENDBRANCH  13  14
BRANCH  13  16
ATOM     16  C   UNL     1      39.983  21.248  18.629  0.00  0.00    +0.200 C 
BRANCH  16  17
ATOM     17  O   UNL     1      40.160  22.254  17.629  0.00  0.00    -0.564 OA
ATOM     18  H   UNL     1      40.110  21.919  16.723  0.00  0.00    +0.384 HD
ENDBRANCH  16  17
ENDBRANCH  13  16
ENDBRANCH   4   5
ENDBRANCH   3   4
ENDBRANCH  25  24
ENDBRANCH  27  26
BRANCH  27  28
ATOM     28  C   UNL     1      52.191  19.572  20.503  0.00  0.00    -0.151 C 
ATOM     29  C   UNL     1      52.457  18.430  20.439  0.00  0.00    -0.139 C 
BRANCH  29  30
ATOM     30  C   UNL     1      52.780  17.037  20.361  0.00  0.00    -0.000 A 
ATOM     31  C   UNL     1      53.647  16.575  19.370  0.00  0.00    +0.067 A 
ATOM     32  C   UNL     1      53.958  15.233  19.296  0.00  0.00    -0.029 A 
ATOM     33  C   UNL     1      53.411  14.340  20.205  0.00  0.00    +0.114 A 
ATOM     50  C   UNL     1      52.545  14.795  21.196  0.00  0.00    +0.081 A 
ATOM     53  C   UNL     1      52.234  16.140  21.280  0.00  0.00    +0.048 A 
BRANCH  50  51
ATOM     51  O   UNL     1      52.009  13.917  22.086  0.00  0.00    -0.480 OA
ATOM     52  H   UNL     1      51.429  14.326  22.742  0.00  0.00    +0.385 HD
ENDBRANCH  50  51
BRANCH  33  34
ATOM     34  O   UNL     1      53.720  13.019  20.128  0.00  0.00    -0.302 OA
BRANCH  34  35
ATOM     35  C   UNL     1      53.644  12.409  18.837  0.00  0.00    +0.322 C 
ATOM     36  C   UNL     1      53.698  10.886  18.989  0.00  0.00    +0.141 C 
ATOM     39  C   UNL     1      52.483  10.417  19.796  0.00  0.00    +0.155 C 
ATOM     42  C   UNL     1      51.206  10.887  19.094  0.00  0.00    +0.166 C 
ATOM     45  C   UNL     1      51.248  12.410  18.939  0.00  0.00    +0.202 C 
ATOM     49  O   UNL     1      52.417  12.780  18.206  0.00  0.00    -0.354 OA
BRANCH  36  37
ATOM     37  O   UNL     1      53.677  10.277  17.697  0.00  0.00    -0.523 OA
ATOM     38  H   UNL     1      54.199   9.464  17.637  0.00  0.00    +0.382 HD
ENDBRANCH  36  37
BRANCH  39  40
ATOM     40  O   UNL     1      52.540  10.974  21.112  0.00  0.00    -0.532 OA
ATOM     41  H   UNL     1      52.329  10.344  21.815  0.00  0.00    +0.385 HD
ENDBRANCH  39  40
BRANCH  42  43
ATOM     43  O   UNL     1      51.117  10.277  17.805  0.00  0.00    -0.529 OA
ATOM     44  H   UNL     1      51.341  10.868  17.074  0.00  0.00    +0.378 HD
ENDBRANCH  42  43
BRANCH  45  46
ATOM     46  C   UNL     1      50.002  12.881  18.186  0.00  0.00    +0.211 C 
BRANCH  46  47
ATOM     47  O   UNL     1      48.938  11.951  18.396  0.00  0.00    -0.565 OA
ATOM     48  H   UNL     1      48.826  11.313  17.678  0.00  0.00    +0.381 HD
ENDBRANCH  46  47
ENDBRANCH  45  46
ENDBRANCH  34  35
ENDBRANCH  33  34
ENDBRANCH  29  30
ENDBRANCH  27  28
TORSDOF 20
ENDMDL
MODEL 5
REMARK VINA RESULT:      -4.1      3.364     12.768
REMARK  Name = ZINC95486256
REMARK  20 active torsions:
REMARK  status: ('A' for Active; 'I' for Inactive)
REMARK    1  A    between atoms: C3_3  and  O9_37
REMARK    2  A    between atoms: C4_4  and  O8_36
REMARK    3  A    between atoms: C6_6  and  C7_7
REMARK    4  A    between atoms: C8_8  and  C9_9
REMARK    5  A    between atoms: C9_9  and  C10_10
REMARK    6  A    between atoms: C11_11  and  C12_12
REMARK    7  A    between atoms: C15_15  and  O2_19
REMARK    8  A    between atoms: C16_16  and  O1_18
REMARK    9  A    between atoms: O2_19  and  C18_20
REMARK   10  A    between atoms: C19_22  and  O7_35
REMARK   11  A    between atoms: C20_24  and  O6_34
REMARK   12  A    between atoms: C21_26  and  O5_33
REMARK   13  A    between atoms: C22_28  and  C23_31
REMARK   14  A    between atoms: C23_31  and  O4_32
REMARK   15  A    between atoms: O9_37  and  C24_38
REMARK   16  A    between atoms: C26_41  and  O14_51
REMARK   17  A    between atoms: C27_43  and  O13_50
REMARK   18  A    between atoms: C28_45  and  C29_47
REMARK   19  A    between atoms: C28_45  and  O12_49
REMARK   20  A    between atoms: C29_47  and  O11_48
REMARK                            x       y       z     vdW  Elec       q    Type
REMARK                         _______ _______ _______ _____ _____    ______ ____
ROOT
ATOM     27  C   UNL     1      50.659  20.143  18.846  0.00  0.00    +0.221 C 
ENDROOT
BRANCH  27  26
ATOM     25  C   UNL     1      48.360  19.294  18.722  0.00  0.00    +0.019 C 
ATOM     26  C   UNL     1      49.179  20.268  19.094  0.00  0.00    -0.031 C 
BRANCH  25  24
ATOM      1  C   UNL     1      46.004  18.706  18.175  0.00  0.00    +0.047 A 
ATOM      2  C   UNL     1      44.648  18.820  18.406  0.00  0.00    -0.044 A 
ATOM      3  C   UNL     1      44.180  19.637  19.423  0.00  0.00    +0.111 A 
ATOM     20  C   UNL     1      45.078  20.347  20.217  0.00  0.00    +0.079 A 
ATOM     23  C   UNL     1      46.438  20.239  19.992  0.00  0.00    +0.035 A 
ATOM     24  C   UNL     1      46.908  19.415  18.967  0.00  0.00    -0.080 A 
BRANCH  20  21
ATOM     21  O   UNL     1      44.617  21.149  21.214  0.00  0.00    -0.479 OA
ATOM     22  H   UNL     1      44.500  20.696  22.061  0.00  0.00    +0.382 HD
ENDBRANCH  20  21
BRANCH   3   4
ATOM      4  O   UNL     1      42.843  19.745  19.647  0.00  0.00    -0.285 OA
BRANCH   4   5
ATOM      5  C   UNL     1      41.983  19.596  18.516  0.00  0.00    +0.355 C 
ATOM      6  C   UNL     1      40.607  19.112  18.983  0.00  0.00    +0.024 C 
ATOM      7  C   UNL     1      39.988  20.169  19.902  0.00  0.00    +0.143 C 
ATOM     10  C   UNL     1      39.911  21.501  19.149  0.00  0.00    +0.186 C 
ATOM     13  C   UNL     1      41.312  21.893  18.677  0.00  0.00    +0.309 C 
ATOM     19  O   UNL     1      41.844  20.853  17.853  0.00  0.00    -0.383 OA
BRANCH   7   8
ATOM      8  O   UNL     1      40.798  20.323  21.068  0.00  0.00    -0.519 OA
ATOM      9  H   UNL     1      41.734  20.476  20.879  0.00  0.00    +0.375 HD
ENDBRANCH   7   8
BRANCH  10  11
ATOM     11  O   UNL     1      39.046  21.362  18.021  0.00  0.00    -0.544 OA
ATOM     12  H   UNL     1      39.334  20.694  17.383  0.00  0.00    +0.388 HD
ENDBRANCH  10  11
BRANCH  13  14
ATOM     14  O   UNL     1      42.162  22.083  19.810  0.00  0.00    -0.522 OA
ATOM     15  H   UNL     1      41.956  21.505  20.558  0.00  0.00    +0.383 HD
ENDBRANCH  13  14
BRANCH  13  16
ATOM     16  C   UNL     1      41.236  23.193  17.872  0.00  0.00    +0.200 C 
BRANCH  16  17
ATOM     17  O   UNL     1      42.359  24.017  18.192  0.00  0.00    -0.564 OA
ATOM     18  H   UNL     1      42.287  24.463  19.047  0.00  0.00    +0.384 HD
ENDBRANCH  16  17
ENDBRANCH  13  16
ENDBRANCH   4   5
ENDBRANCH   3   4
ENDBRANCH  25  24
ENDBRANCH  27  26
BRANCH  27  28
ATOM     28  C   UNL     1      50.943  18.841  18.220  0.00  0.00    -0.151 C 
ATOM     29  C   UNL     1      51.169  17.802  17.721  0.00  0.00    -0.139 C 
BRANCH  29  30
ATOM     30  C   UNL     1      51.445  16.535  17.113  0.00  0.00    -0.000 A 
ATOM     31  C   UNL     1      51.844  16.474  15.778  0.00  0.00    +0.067 A 
ATOM     32  C   UNL     1      52.110  15.252  15.193  0.00  0.00    -0.029 A 
ATOM     33  C   UNL     1      51.980  14.084  15.929  0.00  0.00    +0.114 A 
ATOM     50  C   UNL     1      51.581  14.140  17.262  0.00  0.00    +0.081 A 
ATOM     53  C   UNL     1      51.319  15.361  17.856  0.00  0.00    +0.048 A 
BRANCH  50  51
ATOM     51  O   UNL     1      51.453  12.993  17.982  0.00  0.00    -0.480 OA
ATOM     52  H   UNL     1      50.706  12.994  18.595  0.00  0.00    +0.385 HD
ENDBRANCH  50  51
BRANCH  33  34
ATOM     34  O   UNL     1      52.242  12.884  15.349  0.00  0.00    -0.302 OA
BRANCH  34  35
ATOM     35  C   UNL     1      51.463  12.534  14.202  0.00  0.00    +0.322 C 
ATOM     36  C   UNL     1      51.566  11.026  13.957  0.00  0.00    +0.141 C 
ATOM     39  C   UNL     1      50.982  10.279  15.160  0.00  0.00    +0.155 C 
ATOM     42  C   UNL     1      49.537  10.736  15.377  0.00  0.00    +0.166 C 
ATOM     45  C   UNL     1      49.512  12.254  15.569  0.00  0.00    +0.202 C 
ATOM     49  O   UNL     1      50.097  12.886  14.428  0.00  0.00    -0.354 OA
BRANCH  36  37
ATOM     37  O   UNL     1      50.832  10.683  12.779  0.00  0.00    -0.523 OA
ATOM     38  H   UNL     1      50.079  10.098  12.942  0.00  0.00    +0.382 HD
ENDBRANCH  36  37
BRANCH  39  40
ATOM     40  O   UNL     1      51.758  10.569  16.325  0.00  0.00    -0.532 OA
ATOM     41  H   UNL     1      52.484   9.950  16.479  0.00  0.00    +0.385 HD
ENDBRANCH  39  40
BRANCH  42  43
ATOM     43  O   UNL     1      48.748  10.383  14.239  0.00  0.00    -0.529 OA
ATOM     44  H   UNL     1      48.636   9.431  14.118  0.00  0.00    +0.378 HD
ENDBRANCH  42  43
BRANCH  45  46
ATOM     46  C   UNL     1      48.065  12.726  15.727  0.00  0.00    +0.211 C 
BRANCH  46  47
ATOM     47  O   UNL     1      47.666  13.444  14.558  0.00  0.00    -0.565 OA
ATOM     48  H   UNL     1      47.212  14.277  14.744  0.00  0.00    +0.381 HD
ENDBRANCH  46  47
ENDBRANCH  45  46
ENDBRANCH  34  35
ENDBRANCH  33  34
ENDBRANCH  29  30
ENDBRANCH  27  28
TORSDOF 20
ENDMDL
MODEL 6
REMARK VINA RESULT:      -4.0      1.230     13.699
REMARK  Name = ZINC95486256
REMARK  20 active torsions:
REMARK  status: ('A' for Active; 'I' for Inactive)
REMARK    1  A    between atoms: C3_3  and  O9_37
REMARK    2  A    between atoms: C4_4  and  O8_36
REMARK    3  A    between atoms: C6_6  and  C7_7
REMARK    4  A    between atoms: C8_8  and  C9_9
REMARK    5  A    between atoms: C9_9  and  C10_10
REMARK    6  A    between atoms: C11_11  and  C12_12
REMARK    7  A    between atoms: C15_15  and  O2_19
REMARK    8  A    between atoms: C16_16  and  O1_18
REMARK    9  A    between atoms: O2_19  and  C18_20
REMARK   10  A    between atoms: C19_22  and  O7_35
REMARK   11  A    between atoms: C20_24  and  O6_34
REMARK   12  A    between atoms: C21_26  and  O5_33
REMARK   13  A    between atoms: C22_28  and  C23_31
REMARK   14  A    between atoms: C23_31  and  O4_32
REMARK   15  A    between atoms: O9_37  and  C24_38
REMARK   16  A    between atoms: C26_41  and  O14_51
REMARK   17  A    between atoms: C27_43  and  O13_50
REMARK   18  A    between atoms: C28_45  and  C29_47
REMARK   19  A    between atoms: C28_45  and  O12_49
REMARK   20  A    between atoms: C29_47  and  O11_48
REMARK                            x       y       z     vdW  Elec       q    Type
REMARK                         _______ _______ _______ _____ _____    ______ ____
ROOT
ATOM     27  C   UNL     1      50.907  20.176  18.485  0.00  0.00    +0.221 C 
ENDROOT
BRANCH  27  26
ATOM     25  C   UNL     1      48.678  19.235  18.892  0.00  0.00    +0.019 C 
ATOM     26  C   UNL     1      49.421  20.314  18.685  0.00  0.00    -0.031 C 
BRANCH  25  24
ATOM      1  C   UNL     1      46.599  20.606  18.904  0.00  0.00    +0.047 A 
ATOM      2  C   UNL     1      45.237  20.729  19.089  0.00  0.00    -0.044 A 
ATOM      3  C   UNL     1      44.482  19.627  19.458  0.00  0.00    +0.111 A 
ATOM     20  C   UNL     1      45.094  18.390  19.645  0.00  0.00    +0.079 A 
ATOM     23  C   UNL     1      46.458  18.259  19.463  0.00  0.00    +0.035 A 
ATOM     24  C   UNL     1      47.219  19.369  19.090  0.00  0.00    -0.080 A 
BRANCH  20  21
ATOM     21  O   UNL     1      44.351  17.311  20.008  0.00  0.00    -0.479 OA
ATOM     22  H   UNL     1      44.875  16.532  20.241  0.00  0.00    +0.382 HD
ENDBRANCH  20  21
BRANCH   3   4
ATOM      4  O   UNL     1      43.139  19.754  19.638  0.00  0.00    -0.285 OA
BRANCH   4   5
ATOM      5  C   UNL     1      42.315  19.615  18.479  0.00  0.00    +0.355 C 
ATOM      6  C   UNL     1      40.966  19.012  18.882  0.00  0.00    +0.024 C 
ATOM      7  C   UNL     1      40.257  19.967  19.846  0.00  0.00    +0.143 C 
ATOM     10  C   UNL     1      40.103  21.335  19.173  0.00  0.00    +0.186 C 
ATOM     13  C   UNL     1      41.485  21.848  18.759  0.00  0.00    +0.309 C 
ATOM     19  O   UNL     1      42.103  20.899  17.888  0.00  0.00    -0.383 OA
BRANCH   7   8
ATOM      8  O   UNL     1      41.031  20.104  21.040  0.00  0.00    -0.519 OA
ATOM      9  H   UNL     1      41.612  19.353  21.220  0.00  0.00    +0.375 HD
ENDBRANCH   7   8
BRANCH  10  11
ATOM     11  O   UNL     1      39.274  21.207  18.017  0.00  0.00    -0.544 OA
ATOM     12  H   UNL     1      39.329  20.343  17.586  0.00  0.00    +0.388 HD
ENDBRANCH  10  11
BRANCH  13  14
ATOM     14  O   UNL     1      42.296  22.026  19.923  0.00  0.00    -0.522 OA
ATOM     15  H   UNL     1      43.155  22.435  19.745  0.00  0.00    +0.383 HD
ENDBRANCH  13  14
BRANCH  13  16
ATOM     16  C   UNL     1      41.335  23.186  18.032  0.00  0.00    +0.200 C 
BRANCH  16  17
ATOM     17  O   UNL     1      42.319  24.104  18.516  0.00  0.00    -0.564 OA
ATOM     18  H   UNL     1      42.993  24.337  17.863  0.00  0.00    +0.384 HD
ENDBRANCH  16  17
ENDBRANCH  13  16
ENDBRANCH   4   5
ENDBRANCH   3   4
ENDBRANCH  25  24
ENDBRANCH  27  26
BRANCH  27  28
ATOM     28  C   UNL     1      51.339  18.838  18.922  0.00  0.00    -0.151 C 
ATOM     29  C   UNL     1      51.683  17.771  19.271  0.00  0.00    -0.139 C 
BRANCH  29  30
ATOM     30  C   UNL     1      52.103  16.470  19.697  0.00  0.00    -0.000 A 
ATOM     31  C   UNL     1      52.444  16.248  21.032  0.00  0.00    +0.067 A 
ATOM     32  C   UNL     1      52.848  14.994  21.441  0.00  0.00    -0.029 A 
ATOM     33  C   UNL     1      52.916  13.952  20.529  0.00  0.00    +0.114 A 
ATOM     50  C   UNL     1      52.578  14.167  19.195  0.00  0.00    +0.081 A 
ATOM     53  C   UNL     1      52.166  15.421  18.780  0.00  0.00    +0.048 A 
BRANCH  50  51
ATOM     51  O   UNL     1      52.646  13.144  18.302  0.00  0.00    -0.480 OA
ATOM     52  H   UNL     1      52.363  13.381  17.409  0.00  0.00    +0.385 HD
ENDBRANCH  50  51
BRANCH  33  34
ATOM     34  O   UNL     1      53.315  12.718  20.936  0.00  0.00    -0.302 OA
BRANCH  34  35
ATOM     35  C   UNL     1      54.484  12.652  21.757  0.00  0.00    +0.322 C 
ATOM     36  C   UNL     1      55.108  11.259  21.645  0.00  0.00    +0.141 C 
ATOM     39  C   UNL     1      55.542  11.016  20.196  0.00  0.00    +0.155 C 
ATOM     42  C   UNL     1      56.513  12.123  19.774  0.00  0.00    +0.166 C 
ATOM     45  C   UNL     1      55.835  13.483  19.957  0.00  0.00    +0.202 C 
ATOM     49  O   UNL     1      55.429  13.632  21.320  0.00  0.00    -0.354 OA
BRANCH  36  37
ATOM     37  O   UNL     1      56.245  11.174  22.505  0.00  0.00    -0.523 OA
ATOM     38  H   UNL     1      57.075  11.448  22.089  0.00  0.00    +0.382 HD
ENDBRANCH  36  37
BRANCH  39  40
ATOM     40  O   UNL     1      54.395  11.033  19.343  0.00  0.00    -0.532 OA
ATOM     41  H   UNL     1      53.569  10.801  19.790  0.00  0.00    +0.385 HD
ENDBRANCH  39  40
BRANCH  42  43
ATOM     43  O   UNL     1      57.689  12.061  20.584  0.00  0.00    -0.529 OA
ATOM     44  H   UNL     1      57.542  11.686  21.462  0.00  0.00    +0.378 HD
ENDBRANCH  42  43
BRANCH  45  46
ATOM     46  C   UNL     1      56.819  14.597  19.594  0.00  0.00    +0.211 C 
BRANCH  46  47
ATOM     47  O   UNL     1      56.193  15.868  19.784  0.00  0.00    -0.565 OA
ATOM     48  H   UNL     1      56.738  16.507  20.262  0.00  0.00    +0.381 HD
ENDBRANCH  46  47
ENDBRANCH  45  46
ENDBRANCH  34  35
ENDBRANCH  33  34
ENDBRANCH  29  30
ENDBRANCH  27  28
TORSDOF 20
ENDMDL
MODEL 7
REMARK VINA RESULT:      -3.8      1.689      2.842
REMARK  Name = ZINC95486256
REMARK  20 active torsions:
REMARK  status: ('A' for Active; 'I' for Inactive)
REMARK    1  A    between atoms: C3_3  and  O9_37
REMARK    2  A    between atoms: C4_4  and  O8_36
REMARK    3  A    between atoms: C6_6  and  C7_7
REMARK    4  A    between atoms: C8_8  and  C9_9
REMARK    5  A    between atoms: C9_9  and  C10_10
REMARK    6  A    between atoms: C11_11  and  C12_12
REMARK    7  A    between atoms: C15_15  and  O2_19
REMARK    8  A    between atoms: C16_16  and  O1_18
REMARK    9  A    between atoms: O2_19  and  C18_20
REMARK   10  A    between atoms: C19_22  and  O7_35
REMARK   11  A    between atoms: C20_24  and  O6_34
REMARK   12  A    between atoms: C21_26  and  O5_33
REMARK   13  A    between atoms: C22_28  and  C23_31
REMARK   14  A    between atoms: C23_31  and  O4_32
REMARK   15  A    between atoms: O9_37  and  C24_38
REMARK   16  A    between atoms: C26_41  and  O14_51
REMARK   17  A    between atoms: C27_43  and  O13_50
REMARK   18  A    between atoms: C28_45  and  C29_47
REMARK   19  A    between atoms: C28_45  and  O12_49
REMARK   20  A    between atoms: C29_47  and  O11_48
REMARK                            x       y       z     vdW  Elec       q    Type
REMARK                         _______ _______ _______ _____ _____    ______ ____
ROOT
ATOM     27  C   UNL     1      52.060  20.685  17.790  0.00  0.00    +0.221 C 
ENDROOT
BRANCH  27  26
ATOM     25  C   UNL     1      51.964  18.307  18.391  0.00  0.00    +0.019 C 
ATOM     26  C   UNL     1      52.712  19.377  18.158  0.00  0.00    -0.031 C 
BRANCH  25  24
ATOM      1  C   UNL     1      53.684  17.003  19.632  0.00  0.00    +0.047 A 
ATOM      2  C   UNL     1      54.279  15.803  19.967  0.00  0.00    -0.044 A 
ATOM      3  C   UNL     1      53.804  14.617  19.431  0.00  0.00    +0.111 A 
ATOM     20  C   UNL     1      52.724  14.630  18.551  0.00  0.00    +0.079 A 
ATOM     23  C   UNL     1      52.124  15.828  18.210  0.00  0.00    +0.035 A 
ATOM     24  C   UNL     1      52.602  17.023  18.751  0.00  0.00    -0.080 A 
BRANCH  20  21
ATOM     21  O   UNL     1      52.261  13.465  18.025  0.00  0.00    -0.479 OA
ATOM     22  H   UNL     1      52.870  13.045  17.402  0.00  0.00    +0.382 HD
ENDBRANCH  20  21
BRANCH   3   4
ATOM      4  O   UNL     1      54.392  13.438  19.765  0.00  0.00    -0.285 OA
BRANCH   4   5
ATOM      5  C   UNL     1      54.342  13.055  21.140  0.00  0.00    +0.355 C 
ATOM      6  C   UNL     1      53.754  11.646  21.256  0.00  0.00    +0.024 C 
ATOM      7  C   UNL     1      54.671  10.657  20.532  0.00  0.00    +0.143 C 
ATOM     10  C   UNL     1      56.078  10.750  21.131  0.00  0.00    +0.186 C 
ATOM     13  C   UNL     1      56.577  12.193  21.020  0.00  0.00    +0.309 C 
ATOM     19  O   UNL     1      55.661  13.065  21.687  0.00  0.00    -0.383 OA
BRANCH   7   8
ATOM      8  O   UNL     1      54.720  10.980  19.141  0.00  0.00    -0.519 OA
ATOM      9  H   UNL     1      55.537  11.418  18.868  0.00  0.00    +0.375 HD
ENDBRANCH   7   8
BRANCH  10  11
ATOM     11  O   UNL     1      56.038  10.362  22.505  0.00  0.00    -0.544 OA
ATOM     12  H   UNL     1      56.127   9.409  22.648  0.00  0.00    +0.388 HD
ENDBRANCH  10  11
BRANCH  13  14
ATOM     14  O   UNL     1      56.667  12.562  19.642  0.00  0.00    -0.522 OA
ATOM     15  H   UNL     1      55.833  12.873  19.263  0.00  0.00    +0.383 HD
ENDBRANCH  13  14
BRANCH  13  16
ATOM     16  C   UNL     1      57.957  12.308  21.670  0.00  0.00    +0.200 C 
BRANCH  16  17
ATOM     17  O   UNL     1      58.530  13.578  21.351  0.00  0.00    -0.564 OA
ATOM     18  H   UNL     1      59.472  13.541  21.136  0.00  0.00    +0.384 HD
ENDBRANCH  16  17
ENDBRANCH  13  16
ENDBRANCH   4   5
ENDBRANCH   3   4
ENDBRANCH  25  24
ENDBRANCH  27  26
BRANCH  27  28
ATOM     28  C   UNL     1      50.737  20.770  18.431  0.00  0.00    -0.151 C 
ATOM     29  C   UNL     1      49.683  20.839  18.943  0.00  0.00    -0.139 C 
BRANCH  29  30
ATOM     30  C   UNL     1      48.396  20.922  19.566  0.00  0.00    -0.000 A 
ATOM     31  C   UNL     1      48.240  20.542  20.899  0.00  0.00    +0.067 A 
ATOM     32  C   UNL     1      47.000  20.623  21.499  0.00  0.00    -0.029 A 
ATOM     33  C   UNL     1      45.906  21.082  20.779  0.00  0.00    +0.114 A 
ATOM     50  C   UNL     1      46.056  21.462  19.447  0.00  0.00    +0.081 A 
ATOM     53  C   UNL     1      47.298  21.389  18.843  0.00  0.00    +0.048 A 
BRANCH  50  51
ATOM     51  O   UNL     1      44.983  21.910  18.743  0.00  0.00    -0.480 OA
ATOM     52  H   UNL     1      45.065  21.799  17.787  0.00  0.00    +0.385 HD
ENDBRANCH  50  51
BRANCH  33  34
ATOM     34  O   UNL     1      44.687  21.160  21.373  0.00  0.00    -0.302 OA
BRANCH  34  35
ATOM     35  C   UNL     1      44.180  19.965  21.974  0.00  0.00    +0.322 C 
ATOM     36  C   UNL     1      42.655  19.939  21.850  0.00  0.00    +0.141 C 
ATOM     39  C   UNL     1      42.271  19.912  20.368  0.00  0.00    +0.155 C 
ATOM     42  C   UNL     1      42.929  18.699  19.704  0.00  0.00    +0.166 C 
ATOM     45  C   UNL     1      44.444  18.773  19.910  0.00  0.00    +0.202 C 
ATOM     49  O   UNL     1      44.731  18.827  21.309  0.00  0.00    -0.354 OA
BRANCH  36  37
ATOM     37  O   UNL     1      42.143  18.773  22.498  0.00  0.00    -0.523 OA
ATOM     38  H   UNL     1      42.825  18.215  22.900  0.00  0.00    +0.382 HD
ENDBRANCH  36  37
BRANCH  39  40
ATOM     40  O   UNL     1      42.724  21.110  19.734  0.00  0.00    -0.532 OA
ATOM     41  H   UNL     1      43.385  21.599  20.243  0.00  0.00    +0.385 HD
ENDBRANCH  39  40
BRANCH  42  43
ATOM     43  O   UNL     1      42.424  17.499  20.293  0.00  0.00    -0.529 OA
ATOM     44  H   UNL     1      42.930  16.707  20.068  0.00  0.00    +0.378 HD
ENDBRANCH  42  43
BRANCH  45  46
ATOM     46  C   UNL     1      45.104  17.535  19.301  0.00  0.00    +0.211 C 
BRANCH  46  47
ATOM     47  O   UNL     1      44.860  16.403  20.139  0.00  0.00    -0.565 OA
ATOM     48  H   UNL     1      44.240  16.574  20.860  0.00  0.00    +0.381 HD
ENDBRANCH  46  47
ENDBRANCH  45  46
ENDBRANCH  34  35
ENDBRANCH  33  34
ENDBRANCH  29  30
ENDBRANCH  27  28
TORSDOF 20
ENDMDL
MODEL 8
REMARK VINA RESULT:      -2.8      3.257     12.890
REMARK  Name = ZINC95486256
REMARK  20 active torsions:
REMARK  status: ('A' for Active; 'I' for Inactive)
REMARK    1  A    between atoms: C3_3  and  O9_37
REMARK    2  A    between atoms: C4_4  and  O8_36
REMARK    3  A    between atoms: C6_6  and  C7_7
REMARK    4  A    between atoms: C8_8  and  C9_9
REMARK    5  A    between atoms: C9_9  and  C10_10
REMARK    6  A    between atoms: C11_11  and  C12_12
REMARK    7  A    between atoms: C15_15  and  O2_19
REMARK    8  A    between atoms: C16_16  and  O1_18
REMARK    9  A    between atoms: O2_19  and  C18_20
REMARK   10  A    between atoms: C19_22  and  O7_35
REMARK   11  A    between atoms: C20_24  and  O6_34
REMARK   12  A    between atoms: C21_26  and  O5_33
REMARK   13  A    between atoms: C22_28  and  C23_31
REMARK   14  A    between atoms: C23_31  and  O4_32
REMARK   15  A    between atoms: O9_37  and  C24_38
REMARK   16  A    between atoms: C26_41  and  O14_51
REMARK   17  A    between atoms: C27_43  and  O13_50
REMARK   18  A    between atoms: C28_45  and  C29_47
REMARK   19  A    between atoms: C28_45  and  O12_49
REMARK   20  A    between atoms: C29_47  and  O11_48
REMARK                            x       y       z     vdW  Elec       q    Type
REMARK                         _______ _______ _______ _____ _____    ______ ____
ROOT
ATOM     27  C   UNL     1      49.879  17.938  22.497  0.00  0.00    +0.221 C 
ENDROOT
BRANCH  27  26
ATOM     25  C   UNL     1      47.892  17.913  21.056  0.00  0.00    +0.019 C 
ATOM     26  C   UNL     1      48.471  18.357  22.163  0.00  0.00    -0.031 C 
BRANCH  25  24
ATOM      1  C   UNL     1      46.202  18.779  19.447  0.00  0.00    +0.047 A 
ATOM      2  C   UNL     1      44.911  19.162  19.142  0.00  0.00    -0.044 A 
ATOM      3  C   UNL     1      43.919  19.093  20.107  0.00  0.00    +0.111 A 
ATOM     20  C   UNL     1      44.220  18.638  21.389  0.00  0.00    +0.079 A 
ATOM     23  C   UNL     1      45.511  18.254  21.701  0.00  0.00    +0.035 A 
ATOM     24  C   UNL     1      46.510  18.323  20.728  0.00  0.00    -0.080 A 
BRANCH  20  21
ATOM     21  O   UNL     1      43.244  18.572  22.334  0.00  0.00    -0.479 OA
ATOM     22  H   UNL     1      43.094  19.405  22.802  0.00  0.00    +0.382 HD
ENDBRANCH  20  21
BRANCH   3   4
ATOM      4  O   UNL     1      42.648  19.470  19.802  0.00  0.00    -0.285 OA
BRANCH   4   5
ATOM      5  C   UNL     1      42.391  19.843  18.447  0.00  0.00    +0.355 C 
ATOM      6  C   UNL     1      40.896  19.693  18.153  0.00  0.00    +0.024 C 
ATOM      7  C   UNL     1      40.107  20.646  19.055  0.00  0.00    +0.143 C 
ATOM     10  C   UNL     1      40.604  22.077  18.825  0.00  0.00    +0.186 C 
ATOM     13  C   UNL     1      42.109  22.135  19.094  0.00  0.00    +0.309 C 
ATOM     19  O   UNL     1      42.781  21.202  18.245  0.00  0.00    -0.383 OA
BRANCH   7   8
ATOM      8  O   UNL     1      40.305  20.283  20.423  0.00  0.00    -0.519 OA
ATOM      9  H   UNL     1      41.154  19.854  20.597  0.00  0.00    +0.375 HD
ENDBRANCH   7   8
BRANCH  10  11
ATOM     11  O   UNL     1      40.343  22.461  17.474  0.00  0.00    -0.544 OA
ATOM     12  H   UNL     1      39.448  22.797  17.325  0.00  0.00    +0.388 HD
ENDBRANCH  10  11
BRANCH  13  14
ATOM     14  O   UNL     1      42.363  21.802  20.461  0.00  0.00    -0.522 OA
ATOM     15  H   UNL     1      42.794  22.507  20.964  0.00  0.00    +0.383 HD
ENDBRANCH  13  14
BRANCH  13  16
ATOM     16  C   UNL     1      42.625  23.547  18.809  0.00  0.00    +0.200 C 
BRANCH  16  17
ATOM     17  O   UNL     1      44.019  23.617  19.119  0.00  0.00    -0.564 OA
ATOM     18  H   UNL     1      44.374  22.808  19.511  0.00  0.00    +0.384 HD
ENDBRANCH  16  17
ENDBRANCH  13  16
ENDBRANCH   4   5
ENDBRANCH   3   4
ENDBRANCH  25  24
ENDBRANCH  27  26
BRANCH  27  28
ATOM     28  C   UNL     1      50.224  16.728  21.733  0.00  0.00    -0.151 C 
ATOM     29  C   UNL     1      50.498  15.763  21.122  0.00  0.00    -0.139 C 
BRANCH  29  30
ATOM     30  C   UNL     1      50.833  14.586  20.378  0.00  0.00    -0.000 A 
ATOM     31  C   UNL     1      52.167  14.299  20.088  0.00  0.00    +0.067 A 
ATOM     32  C   UNL     1      52.488  13.165  19.370  0.00  0.00    -0.029 A 
ATOM     33  C   UNL     1      51.488  12.308  18.936  0.00  0.00    +0.114 A 
ATOM     50  C   UNL     1      50.154  12.590  19.223  0.00  0.00    +0.081 A 
ATOM     53  C   UNL     1      49.826  13.721  19.947  0.00  0.00    +0.048 A 
BRANCH  50  51
ATOM     51  O   UNL     1      49.175  11.748  18.796  0.00  0.00    -0.480 OA
ATOM     52  H   UNL     1      48.597  11.428  19.500  0.00  0.00    +0.385 HD
ENDBRANCH  50  51
BRANCH  33  34
ATOM     34  O   UNL     1      51.809  11.193  18.230  0.00  0.00    -0.302 OA
BRANCH  34  35
ATOM     35  C   UNL     1      52.751  11.348  17.166  0.00  0.00    +0.322 C 
ATOM     36  C   UNL     1      52.498  10.277  16.101  0.00  0.00    +0.141 C 
ATOM     39  C   UNL     1      51.097  10.472  15.514  0.00  0.00    +0.155 C 
ATOM     42  C   UNL     1      50.986  11.891  14.949  0.00  0.00    +0.166 C 
ATOM     45  C   UNL     1      51.297  12.900  16.058  0.00  0.00    +0.202 C 
ATOM     49  O   UNL     1      52.601  12.643  16.582  0.00  0.00    -0.354 OA
BRANCH  36  37
ATOM     37  O   UNL     1      53.473  10.396  15.063  0.00  0.00    -0.523 OA
ATOM     38  H   UNL     1      54.106   9.664  15.032  0.00  0.00    +0.382 HD
ENDBRANCH  36  37
BRANCH  39  40
ATOM     40  O   UNL     1      50.118  10.285  16.539  0.00  0.00    -0.532 OA
ATOM     41  H   UNL     1      50.492  10.080  17.407  0.00  0.00    +0.385 HD
ENDBRANCH  39  40
BRANCH  42  43
ATOM     43  O   UNL     1      51.919  12.053  13.878  0.00  0.00    -0.529 OA
ATOM     44  H   UNL     1      52.828  11.821  14.111  0.00  0.00    +0.378 HD
ENDBRANCH  42  43
BRANCH  45  46
ATOM     46  C   UNL     1      51.246  14.318  15.487  0.00  0.00    +0.211 C 
BRANCH  46  47
ATOM     47  O   UNL     1      50.777  15.220  16.492  0.00  0.00    -0.565 OA
ATOM     48  H   UNL     1      51.163  15.071  17.365  0.00  0.00    +0.381 HD
ENDBRANCH  46  47
ENDBRANCH  45  46
ENDBRANCH  34  35
ENDBRANCH  33  34
ENDBRANCH  29  30
ENDBRANCH  27  28
TORSDOF 20
ENDMDL
MODEL 9
REMARK VINA RESULT:      -2.7      4.777      7.012
REMARK  Name = ZINC95486256
REMARK  20 active torsions:
REMARK  status: ('A' for Active; 'I' for Inactive)
REMARK    1  A    between atoms: C3_3  and  O9_37
REMARK    2  A    between atoms: C4_4  and  O8_36
REMARK    3  A    between atoms: C6_6  and  C7_7
REMARK    4  A    between atoms: C8_8  and  C9_9
REMARK    5  A    between atoms: C9_9  and  C10_10
REMARK    6  A    between atoms: C11_11  and  C12_12
REMARK    7  A    between atoms: C15_15  and  O2_19
REMARK    8  A    between atoms: C16_16  and  O1_18
REMARK    9  A    between atoms: O2_19  and  C18_20
REMARK   10  A    between atoms: C19_22  and  O7_35
REMARK   11  A    between atoms: C20_24  and  O6_34
REMARK   12  A    between atoms: C21_26  and  O5_33
REMARK   13  A    between atoms: C22_28  and  C23_31
REMARK   14  A    between atoms: C23_31  and  O4_32
REMARK   15  A    between atoms: O9_37  and  C24_38
REMARK   16  A    between atoms: C26_41  and  O14_51
REMARK   17  A    between atoms: C27_43  and  O13_50
REMARK   18  A    between atoms: C28_45  and  C29_47
REMARK   19  A    between atoms: C28_45  and  O12_49
REMARK   20  A    between atoms: C29_47  and  O11_48
REMARK                            x       y       z     vdW  Elec       q    Type
REMARK                         _______ _______ _______ _____ _____    ______ ____
ROOT
ATOM     27  C   UNL     1      46.466  13.125  21.743  0.00  0.00    +0.221 C 
ENDROOT
BRANCH  27  26
ATOM     25  C   UNL     1      47.505  13.655  19.583  0.00  0.00    +0.019 C 
ATOM     26  C   UNL     1      47.049  12.726  20.412  0.00  0.00    -0.031 C 
BRANCH  25  24
ATOM      1  C   UNL     1      47.330  13.424  17.110  0.00  0.00    +0.047 A 
ATOM      2  C   UNL     1      47.867  13.058  15.892  0.00  0.00    -0.044 A 
ATOM      3  C   UNL     1      49.148  12.534  15.825  0.00  0.00    +0.111 A 
ATOM     20  C   UNL     1      49.899  12.372  16.987  0.00  0.00    +0.079 A 
ATOM     23  C   UNL     1      49.368  12.735  18.210  0.00  0.00    +0.035 A 
ATOM     24  C   UNL     1      48.078  13.264  18.278  0.00  0.00    -0.080 A 
BRANCH  20  21
ATOM     21  O   UNL     1      51.155  11.856  16.918  0.00  0.00    -0.479 OA
ATOM     22  H   UNL     1      51.289  11.242  16.182  0.00  0.00    +0.382 HD
ENDBRANCH  20  21
BRANCH   3   4
ATOM      4  O   UNL     1      49.672  12.176  14.622  0.00  0.00    -0.285 OA
BRANCH   4   5
ATOM      5  C   UNL     1      50.954  12.713  14.289  0.00  0.00    +0.355 C 
ATOM      6  C   UNL     1      51.899  11.573  13.902  0.00  0.00    +0.024 C 
ATOM      7  C   UNL     1      51.353  10.868  12.657  0.00  0.00    +0.143 C 
ATOM     10  C   UNL     1      51.190  11.895  11.532  0.00  0.00    +0.186 C 
ATOM     13  C   UNL     1      50.272  13.022  12.011  0.00  0.00    +0.309 C 
ATOM     19  O   UNL     1      50.821  13.615  13.189  0.00  0.00    -0.383 OA
BRANCH   7   8
ATOM      8  O   UNL     1      50.086  10.280  12.958  0.00  0.00    -0.519 OA
ATOM      9  H   UNL     1      50.114   9.630  13.673  0.00  0.00    +0.375 HD
ENDBRANCH   7   8
BRANCH  10  11
ATOM     11  O   UNL     1      52.468  12.432  11.187  0.00  0.00    -0.544 OA
ATOM     12  H   UNL     1      53.154  11.763  11.054  0.00  0.00    +0.388 HD
ENDBRANCH  10  11
BRANCH  13  14
ATOM     14  O   UNL     1      48.978  12.490  12.304  0.00  0.00    -0.522 OA
ATOM     15  H   UNL     1      48.932  11.524  12.270  0.00  0.00    +0.383 HD
ENDBRANCH  13  14
BRANCH  13  16
ATOM     16  C   UNL     1      50.151  14.083  10.914  0.00  0.00    +0.200 C 
BRANCH  16  17
ATOM     17  O   UNL     1      51.210  13.915   9.970  0.00  0.00    -0.564 OA
ATOM     18  H   UNL     1      51.637  13.048  10.009  0.00  0.00    +0.384 HD
ENDBRANCH  16  17
ENDBRANCH  13  16
ENDBRANCH   4   5
ENDBRANCH   3   4
ENDBRANCH  25  24
ENDBRANCH  27  26
BRANCH  27  28
ATOM     28  C   UNL     1      45.939  14.497  21.655  0.00  0.00    -0.151 C 
ATOM     29  C   UNL     1      45.519  15.592  21.584  0.00  0.00    -0.139 C 
BRANCH  29  30
ATOM     30  C   UNL     1      45.006  16.926  21.498  0.00  0.00    -0.000 A 
ATOM     31  C   UNL     1      43.789  17.166  20.858  0.00  0.00    +0.067 A 
ATOM     32  C   UNL     1      43.296  18.453  20.775  0.00  0.00    -0.029 A 
ATOM     33  C   UNL     1      44.007  19.508  21.327  0.00  0.00    +0.114 A 
ATOM     50  C   UNL     1      45.222  19.274  21.966  0.00  0.00    +0.081 A 
ATOM     53  C   UNL     1      45.719  17.986  22.058  0.00  0.00    +0.048 A 
BRANCH  50  51
ATOM     51  O   UNL     1      45.918  20.311  22.505  0.00  0.00    -0.480 OA
ATOM     52  H   UNL     1      46.875  20.175  22.524  0.00  0.00    +0.385 HD
ENDBRANCH  50  51
BRANCH  33  34
ATOM     34  O   UNL     1      43.518  20.773  21.243  0.00  0.00    -0.302 OA
BRANCH  34  35
ATOM     35  C   UNL     1      43.207  21.263  19.936  0.00  0.00    +0.322 C 
ATOM     36  C   UNL     1      42.867  22.754  20.018  0.00  0.00    +0.141 C 
ATOM     39  C   UNL     1      44.091  23.523  20.523  0.00  0.00    +0.155 C 
ATOM     42  C   UNL     1      45.274  23.246  19.590  0.00  0.00    +0.166 C 
ATOM     45  C   UNL     1      45.522  21.737  19.525  0.00  0.00    +0.202 C 
ATOM     49  O   UNL     1      44.335  21.080  19.077  0.00  0.00    -0.354 OA
BRANCH  36  37
ATOM     37  O   UNL     1      42.503  23.232  18.722  0.00  0.00    -0.523 OA
ATOM     38  H   UNL     1      43.076  23.937  18.388  0.00  0.00    +0.382 HD
ENDBRANCH  36  37
BRANCH  39  40
ATOM     40  O   UNL     1      44.414  23.091  21.847  0.00  0.00    -0.532 OA
ATOM     41  H   UNL     1      44.868  22.238  21.884  0.00  0.00    +0.385 HD
ENDBRANCH  39  40
BRANCH  42  43
ATOM     43  O   UNL     1      44.976  23.740  18.282  0.00  0.00    -0.529 OA
ATOM     44  H   UNL     1      45.422  24.568  18.064  0.00  0.00    +0.378 HD
ENDBRANCH  42  43
BRANCH  45  46
ATOM     46  C   UNL     1      46.664  21.448  18.549  0.00  0.00    +0.211 C 
BRANCH  46  47
ATOM     47  O   UNL     1      46.631  20.071  18.170  0.00  0.00    -0.565 OA
ATOM     48  H   UNL     1      46.698  19.457  18.913  0.00  0.00    +0.381 HD
ENDBRANCH  46  47
ENDBRANCH  45  46
ENDBRANCH  34  35
ENDBRANCH  33  34
ENDBRANCH  29  30
ENDBRANCH  27  28
TORSDOF 20
ENDMDL
