MODEL 1
REMARK VINA RESULT:      -6.3      0.000      0.000
REMARK  Name = ZINC33857007
REMARK  7 active torsions:
REMARK  status: ('A' for Active; 'I' for Inactive)
REMARK    1  A    between atoms: C1_1  and  C2_2
REMARK    2  A    between atoms: C2_2  and  C4_4
REMARK    3  A    between atoms: C9_10  and  O6_32
REMARK    4  A    between atoms: C16_20  and  O5_30
REMARK    5  A    between atoms: C17_21  and  O4_28
REMARK    6  A    between atoms: O4_28  and  C22_29
REMARK    7  A    between atoms: O5_30  and  C23_31
REMARK                            x       y       z     vdW  Elec       q    Type
REMARK                         _______ _______ _______ _____ _____    ______ ____
ROOT
ATOM      3  C   UNL     1      41.746  20.175  19.295  0.00  0.00    +0.216 C 
ATOM      4  C   UNL     1      42.898  19.559  18.462  0.00  0.00    +0.106 C 
ATOM      5  C   UNL     1      44.101  20.264  19.027  0.00  0.00    -0.233 A 
ATOM      6  C   UNL     1      43.630  21.361  19.764  0.00  0.00    +0.201 A 
ATOM      7  C   UNL     1      44.523  22.211  20.424  0.00  0.00    -0.054 A 
ATOM      8  C   UNL     1      45.879  21.937  20.316  0.00  0.00    +0.243 A 
ATOM     11  C   UNL     1      46.345  20.847  19.567  0.00  0.00    -0.310 A 
ATOM     12  C   UNL     1      47.790  20.590  19.447  0.00  0.00    +0.420 C 
ATOM     13  O   UNL     1      48.610  21.147  20.148  0.00  0.00    -0.421 OA
ATOM     14  C   UNL     1      48.178  19.579  18.388  0.00  0.00    +0.011 C 
ATOM     15  C   UNL     1      49.565  19.054  18.616  0.00  0.00    -0.159 A 
ATOM     16  C   UNL     1      50.566  19.916  19.026  0.00  0.00    +0.043 A 
ATOM     17  C   UNL     1      51.857  19.454  19.208  0.00  0.00    +0.071 A 
ATOM     20  C   UNL     1      52.149  18.112  18.979  0.00  0.00    +0.144 A 
ATOM     23  C   UNL     1      51.146  17.249  18.576  0.00  0.00    -0.058 A 
ATOM     24  C   UNL     1      49.847  17.714  18.396  0.00  0.00    +0.138 A 
ATOM     25  O   UNL     1      48.893  16.826  18.008  0.00  0.00    -0.299 OA
ATOM     26  C   UNL     1      47.632  17.321  17.548  0.00  0.00    +0.293 C 
ATOM     27  C   UNL     1      47.180  18.416  18.509  0.00  0.00    +0.157 C 
ATOM     28  O   UNL     1      45.876  18.904  18.206  0.00  0.00    -0.282 OA
ATOM     29  C   UNL     1      45.444  19.977  18.911  0.00  0.00    +0.242 A 
ATOM     30  O   UNL     1      42.284  21.444  19.716  0.00  0.00    -0.279 OA
ENDROOT
BRANCH   3   2
ATOM      1  C   UNL     1      39.667  21.603  18.622  0.00  0.00    +0.087 C 
ATOM      2  C   UNL     1      40.519  20.372  18.443  0.00  0.00    -0.134 C 
ATOM     31  C   UNL     1      40.193  19.474  17.547  0.00  0.00    +0.053 C 
ENDBRANCH   3   2
BRANCH   8   9
ATOM      9  O   UNL     1      46.771  22.740  20.946  0.00  0.00    -0.479 OA
ATOM     10  H   UNL     1      47.410  23.157  20.353  0.00  0.00    +0.405 HD
ENDBRANCH   8   9
BRANCH  17  18
ATOM     18  O   UNL     1      52.840  20.307  19.609  0.00  0.00    -0.304 OA
ATOM     19  C   UNL     1      52.427  21.577  20.116  0.00  0.00    +0.239 C 
ENDBRANCH  17  18
BRANCH  20  21
ATOM     21  O   UNL     1      53.416  17.651  19.151  0.00  0.00    -0.299 OA
ATOM     22  C   UNL     1      53.593  16.233  19.182  0.00  0.00    +0.242 C 
ENDBRANCH  20  21
TORSDOF 4
ENDMDL
MODEL 2
REMARK VINA RESULT:      -6.2      1.965      2.701
REMARK  Name = ZINC33857007
REMARK  7 active torsions:
REMARK  status: ('A' for Active; 'I' for Inactive)
REMARK    1  A    between atoms: C1_1  and  C2_2
REMARK    2  A    between atoms: C2_2  and  C4_4
REMARK    3  A    between atoms: C9_10  and  O6_32
REMARK    4  A    between atoms: C16_20  and  O5_30
REMARK    5  A    between atoms: C17_21  and  O4_28
REMARK    6  A    between atoms: O4_28  and  C22_29
REMARK    7  A    between atoms: O5_30  and  C23_31
REMARK                            x       y       z     vdW  Elec       q    Type
REMARK                         _______ _______ _______ _____ _____    ______ ____
ROOT
ATOM      3  C   UNL     1      42.666  20.899  19.508  0.00  0.00    +0.216 C 
ATOM      4  C   UNL     1      43.316  19.919  18.498  0.00  0.00    +0.106 C 
ATOM      5  C   UNL     1      44.770  20.005  18.875  0.00  0.00    -0.233 A 
ATOM      6  C   UNL     1      44.921  21.138  19.687  0.00  0.00    +0.201 A 
ATOM      7  C   UNL     1      46.174  21.478  20.208  0.00  0.00    -0.054 A 
ATOM      8  C   UNL     1      47.252  20.665  19.886  0.00  0.00    +0.243 A 
ATOM     11  C   UNL     1      47.097  19.541  19.063  0.00  0.00    -0.310 A 
ATOM     12  C   UNL     1      48.260  18.707  18.716  0.00  0.00    +0.420 C 
ATOM     13  O   UNL     1      49.327  18.809  19.285  0.00  0.00    -0.421 OA
ATOM     14  C   UNL     1      48.027  17.711  17.599  0.00  0.00    +0.011 C 
ATOM     15  C   UNL     1      49.070  16.632  17.601  0.00  0.00    -0.159 A 
ATOM     16  C   UNL     1      50.391  16.957  17.858  0.00  0.00    +0.043 A 
ATOM     17  C   UNL     1      51.369  15.980  17.831  0.00  0.00    +0.071 A 
ATOM     20  C   UNL     1      51.022  14.662  17.546  0.00  0.00    +0.144 A 
ATOM     23  C   UNL     1      49.701  14.337  17.296  0.00  0.00    -0.058 A 
ATOM     24  C   UNL     1      48.716  15.320  17.327  0.00  0.00    +0.138 A 
ATOM     25  O   UNL     1      47.430  14.951  17.084  0.00  0.00    -0.299 OA
ATOM     26  C   UNL     1      46.454  15.966  16.832  0.00  0.00    +0.293 C 
ATOM     27  C   UNL     1      46.653  17.074  17.863  0.00  0.00    +0.157 C 
ATOM     28  O   UNL     1      45.657  18.088  17.773  0.00  0.00    -0.282 OA
ATOM     29  C   UNL     1      45.829  19.186  18.548  0.00  0.00    +0.242 A 
ATOM     30  O   UNL     1      43.749  21.785  19.851  0.00  0.00    -0.279 OA
ENDROOT
BRANCH   3   2
ATOM      1  C   UNL     1      40.212  20.987  18.623  0.00  0.00    +0.087 C 
ATOM      2  C   UNL     1      41.539  21.661  18.860  0.00  0.00    -0.134 C 
ATOM     31  C   UNL     1      41.712  22.910  18.504  0.00  0.00    +0.053 C 
ENDBRANCH   3   2
BRANCH   8   9
ATOM      9  O   UNL     1      48.479  20.965  20.377  0.00  0.00    -0.479 OA
ATOM     10  H   UNL     1      48.561  20.843  21.332  0.00  0.00    +0.405 HD
ENDBRANCH   8   9
BRANCH  17  18
ATOM     18  O   UNL     1      52.667  16.303  18.082  0.00  0.00    -0.304 OA
ATOM     19  C   UNL     1      52.903  17.347  19.030  0.00  0.00    +0.239 C 
ENDBRANCH  17  18
BRANCH  20  21
ATOM     21  O   UNL     1      51.979  13.696  17.513  0.00  0.00    -0.299 OA
ATOM     22  C   UNL     1      51.582  12.405  17.046  0.00  0.00    +0.242 C 
ENDBRANCH  20  21
TORSDOF 4
ENDMDL
MODEL 3
REMARK VINA RESULT:      -6.0      1.543      8.448
REMARK  Name = ZINC33857007
REMARK  7 active torsions:
REMARK  status: ('A' for Active; 'I' for Inactive)
REMARK    1  A    between atoms: C1_1  and  C2_2
REMARK    2  A    between atoms: C2_2  and  C4_4
REMARK    3  A    between atoms: C9_10  and  O6_32
REMARK    4  A    between atoms: C16_20  and  O5_30
REMARK    5  A    between atoms: C17_21  and  O4_28
REMARK    6  A    between atoms: O4_28  and  C22_29
REMARK    7  A    between atoms: O5_30  and  C23_31
REMARK                            x       y       z     vdW  Elec       q    Type
REMARK                         _______ _______ _______ _____ _____    ______ ____
ROOT
ATOM      3  C   UNL     1      52.636  16.018  18.756  0.00  0.00    +0.216 C 
ATOM      4  C   UNL     1      51.297  15.970  19.535  0.00  0.00    +0.106 C 
ATOM      5  C   UNL     1      50.742  17.345  19.282  0.00  0.00    -0.233 A 
ATOM      6  C   UNL     1      51.792  18.130  18.781  0.00  0.00    +0.201 A 
ATOM      7  C   UNL     1      51.578  19.469  18.438  0.00  0.00    -0.054 A 
ATOM      8  C   UNL     1      50.305  19.988  18.619  0.00  0.00    +0.243 A 
ATOM     11  C   UNL     1      49.263  19.204  19.132  0.00  0.00    -0.310 A 
ATOM     12  C   UNL     1      47.925  19.784  19.337  0.00  0.00    +0.420 C 
ATOM     13  O   UNL     1      47.606  20.862  18.877  0.00  0.00    -0.421 OA
ATOM     14  C   UNL     1      46.976  18.938  20.161  0.00  0.00    +0.011 C 
ATOM     15  C   UNL     1      45.550  19.363  19.961  0.00  0.00    -0.159 A 
ATOM     16  C   UNL     1      45.242  20.710  19.873  0.00  0.00    +0.043 A 
ATOM     17  C   UNL     1      43.930  21.119  19.723  0.00  0.00    +0.071 A 
ATOM     20  C   UNL     1      42.914  20.169  19.656  0.00  0.00    +0.144 A 
ATOM     23  C   UNL     1      43.223  18.823  19.736  0.00  0.00    -0.058 A 
ATOM     24  C   UNL     1      44.544  18.412  19.884  0.00  0.00    +0.138 A 
ATOM     25  O   UNL     1      44.800  17.079  19.949  0.00  0.00    -0.299 OA
ATOM     26  C   UNL     1      46.093  16.641  20.379  0.00  0.00    +0.293 C 
ATOM     27  C   UNL     1      47.138  17.492  19.664  0.00  0.00    +0.157 C 
ATOM     28  O   UNL     1      48.469  17.066  19.937  0.00  0.00    -0.282 OA
ATOM     29  C   UNL     1      49.471  17.845  19.465  0.00  0.00    +0.242 A 
ATOM     30  O   UNL     1      52.940  17.425  18.707  0.00  0.00    -0.279 OA
ENDROOT
BRANCH   3   2
ATOM      1  C   UNL     1      53.463  13.852  19.956  0.00  0.00    +0.087 C 
ATOM      2  C   UNL     1      53.711  15.266  19.498  0.00  0.00    -0.134 C 
ATOM     31  C   UNL     1      54.862  15.842  19.745  0.00  0.00    +0.053 C 
ENDBRANCH   3   2
BRANCH   8   9
ATOM      9  O   UNL     1      50.063  21.282  18.293  0.00  0.00    -0.479 OA
ATOM     10  H   UNL     1      49.130  21.480  18.137  0.00  0.00    +0.405 HD
ENDBRANCH   8   9
BRANCH  17  18
ATOM     18  O   UNL     1      43.631  22.444  19.639  0.00  0.00    -0.304 OA
ATOM     19  C   UNL     1      44.710  23.364  19.819  0.00  0.00    +0.239 C 
ENDBRANCH  17  18
BRANCH  20  21
ATOM     21  O   UNL     1      41.620  20.563  19.512  0.00  0.00    -0.299 OA
ATOM     22  C   UNL     1      40.972  20.227  18.284  0.00  0.00    +0.242 C 
ENDBRANCH  20  21
TORSDOF 4
ENDMDL
MODEL 4
REMARK VINA RESULT:      -5.9      3.947      9.122
REMARK  Name = ZINC33857007
REMARK  7 active torsions:
REMARK  status: ('A' for Active; 'I' for Inactive)
REMARK    1  A    between atoms: C1_1  and  C2_2
REMARK    2  A    between atoms: C2_2  and  C4_4
REMARK    3  A    between atoms: C9_10  and  O6_32
REMARK    4  A    between atoms: C16_20  and  O5_30
REMARK    5  A    between atoms: C17_21  and  O4_28
REMARK    6  A    between atoms: O4_28  and  C22_29
REMARK    7  A    between atoms: O5_30  and  C23_31
REMARK                            x       y       z     vdW  Elec       q    Type
REMARK                         _______ _______ _______ _____ _____    ______ ____
ROOT
ATOM      3  C   UNL     1      51.297  11.162  16.028  0.00  0.00    +0.216 C 
ATOM      4  C   UNL     1      51.416  12.708  16.035  0.00  0.00    +0.106 C 
ATOM      5  C   UNL     1      49.990  13.127  16.272  0.00  0.00    -0.233 A 
ATOM      6  C   UNL     1      49.184  12.003  16.037  0.00  0.00    +0.201 A 
ATOM      7  C   UNL     1      47.795  12.080  16.189  0.00  0.00    -0.054 A 
ATOM      8  C   UNL     1      47.251  13.298  16.569  0.00  0.00    +0.243 A 
ATOM     11  C   UNL     1      48.061  14.421  16.790  0.00  0.00    -0.310 A 
ATOM     12  C   UNL     1      47.459  15.710  17.170  0.00  0.00    +0.420 C 
ATOM     13  O   UNL     1      46.301  15.809  17.521  0.00  0.00    -0.421 OA
ATOM     14  C   UNL     1      48.389  16.903  17.092  0.00  0.00    +0.011 C 
ATOM     15  C   UNL     1      47.861  18.061  17.888  0.00  0.00    -0.159 A 
ATOM     16  C   UNL     1      46.507  18.346  17.868  0.00  0.00    +0.043 A 
ATOM     17  C   UNL     1      46.010  19.430  18.569  0.00  0.00    +0.071 A 
ATOM     20  C   UNL     1      46.878  20.236  19.301  0.00  0.00    +0.144 A 
ATOM     23  C   UNL     1      48.230  19.946  19.327  0.00  0.00    -0.058 A 
ATOM     24  C   UNL     1      48.729  18.854  18.623  0.00  0.00    +0.138 A 
ATOM     25  O   UNL     1      50.064  18.603  18.686  0.00  0.00    -0.299 OA
ATOM     26  C   UNL     1      50.639  17.674  17.762  0.00  0.00    +0.293 C 
ATOM     27  C   UNL     1      49.728  16.452  17.699  0.00  0.00    +0.157 C 
ATOM     28  O   UNL     1      50.265  15.411  16.889  0.00  0.00    -0.282 OA
ATOM     29  C   UNL     1      49.466  14.343  16.652  0.00  0.00    +0.242 A 
ATOM     30  O   UNL     1      49.922  10.938  15.662  0.00  0.00    -0.279 OA
ENDROOT
BRANCH   3   2
ATOM      1  C   UNL     1      51.729  10.283  13.608  0.00  0.00    +0.087 C 
ATOM      2  C   UNL     1      52.225  10.562  15.004  0.00  0.00    -0.134 C 
ATOM     31  C   UNL     1      53.464  10.282  15.327  0.00  0.00    +0.053 C 
ENDBRANCH   3   2
BRANCH   8   9
ATOM      9  O   UNL     1      45.909  13.406  16.728  0.00  0.00    -0.479 OA
ATOM     10  H   UNL     1      45.415  12.631  16.429  0.00  0.00    +0.405 HD
ENDBRANCH   8   9
BRANCH  17  18
ATOM     18  O   UNL     1      44.678  19.708  18.545  0.00  0.00    -0.304 OA
ATOM     19  C   UNL     1      43.858  19.031  19.500  0.00  0.00    +0.239 C 
ENDBRANCH  17  18
BRANCH  20  21
ATOM     21  O   UNL     1      46.398  21.306  19.989  0.00  0.00    -0.299 OA
ATOM     22  C   UNL     1      47.146  21.734  21.129  0.00  0.00    +0.242 C 
ENDBRANCH  20  21
TORSDOF 4
ENDMDL
MODEL 5
REMARK VINA RESULT:      -5.8      3.873      8.577
REMARK  Name = ZINC33857007
REMARK  7 active torsions:
REMARK  status: ('A' for Active; 'I' for Inactive)
REMARK    1  A    between atoms: C1_1  and  C2_2
REMARK    2  A    between atoms: C2_2  and  C4_4
REMARK    3  A    between atoms: C9_10  and  O6_32
REMARK    4  A    between atoms: C16_20  and  O5_30
REMARK    5  A    between atoms: C17_21  and  O4_28
REMARK    6  A    between atoms: O4_28  and  C22_29
REMARK    7  A    between atoms: O5_30  and  C23_31
REMARK                            x       y       z     vdW  Elec       q    Type
REMARK                         _______ _______ _______ _____ _____    ______ ____
ROOT
ATOM      3  C   UNL     1      49.588  12.025  15.851  0.00  0.00    +0.216 C 
ATOM      4  C   UNL     1      49.478  13.567  15.957  0.00  0.00    +0.106 C 
ATOM      5  C   UNL     1      48.232  13.734  16.783  0.00  0.00    -0.233 A 
ATOM      6  C   UNL     1      47.568  12.498  16.784  0.00  0.00    +0.201 A 
ATOM      7  C   UNL     1      46.369  12.335  17.485  0.00  0.00    -0.054 A 
ATOM      8  C   UNL     1      45.862  13.434  18.165  0.00  0.00    +0.243 A 
ATOM     11  C   UNL     1      46.523  14.670  18.149  0.00  0.00    -0.310 A 
ATOM     12  C   UNL     1      45.952  15.828  18.858  0.00  0.00    +0.420 C 
ATOM     13  O   UNL     1      45.039  15.720  19.651  0.00  0.00    -0.421 OA
ATOM     14  C   UNL     1      46.590  17.162  18.529  0.00  0.00    +0.011 C 
ATOM     15  C   UNL     1      46.276  18.191  19.575  0.00  0.00    -0.159 A 
ATOM     16  C   UNL     1      45.008  18.245  20.125  0.00  0.00    +0.043 A 
ATOM     17  C   UNL     1      44.693  19.209  21.066  0.00  0.00    +0.071 A 
ATOM     20  C   UNL     1      45.661  20.128  21.463  0.00  0.00    +0.144 A 
ATOM     23  C   UNL     1      46.931  20.069  20.918  0.00  0.00    -0.058 A 
ATOM     24  C   UNL     1      47.247  19.097  19.974  0.00  0.00    +0.138 A 
ATOM     25  O   UNL     1      48.511  19.073  19.473  0.00  0.00    -0.299 OA
ATOM     26  C   UNL     1      48.782  18.281  18.313  0.00  0.00    +0.293 C 
ATOM     27  C   UNL     1      48.108  16.925  18.504  0.00  0.00    +0.157 C 
ATOM     28  O   UNL     1      48.408  16.013  17.452  0.00  0.00    -0.282 OA
ATOM     29  C   UNL     1      47.743  14.833  17.454  0.00  0.00    +0.242 A 
ATOM     30  O   UNL     1      48.231  11.583  16.047  0.00  0.00    -0.279 OA
ENDROOT
BRANCH   3   2
ATOM      1  C   UNL     1      50.345  12.667  13.437  0.00  0.00    +0.087 C 
ATOM      2  C   UNL     1      50.090  11.619  14.490  0.00  0.00    -0.134 C 
ATOM     31  C   UNL     1      50.304  10.355  14.221  0.00  0.00    +0.053 C 
ENDBRANCH   3   2
BRANCH   8   9
ATOM      9  O   UNL     1      44.702  13.309  18.857  0.00  0.00    -0.479 OA
ATOM     10  H   UNL     1      43.963  12.980  18.328  0.00  0.00    +0.405 HD
ENDBRANCH   8   9
BRANCH  17  18
ATOM     18  O   UNL     1      43.444  19.260  21.603  0.00  0.00    -0.304 OA
ATOM     19  C   UNL     1      42.344  19.209  20.692  0.00  0.00    +0.239 C 
ENDBRANCH  17  18
BRANCH  20  21
ATOM     21  O   UNL     1      45.358  21.082  22.384  0.00  0.00    -0.299 OA
ATOM     22  C   UNL     1      45.076  22.393  21.892  0.00  0.00    +0.242 C 
ENDBRANCH  20  21
TORSDOF 4
ENDMDL
MODEL 6
REMARK VINA RESULT:      -5.7      3.008      5.046
REMARK  Name = ZINC33857007
REMARK  7 active torsions:
REMARK  status: ('A' for Active; 'I' for Inactive)
REMARK    1  A    between atoms: C1_1  and  C2_2
REMARK    2  A    between atoms: C2_2  and  C4_4
REMARK    3  A    between atoms: C9_10  and  O6_32
REMARK    4  A    between atoms: C16_20  and  O5_30
REMARK    5  A    between atoms: C17_21  and  O4_28
REMARK    6  A    between atoms: O4_28  and  C22_29
REMARK    7  A    between atoms: O5_30  and  C23_31
REMARK                            x       y       z     vdW  Elec       q    Type
REMARK                         _______ _______ _______ _____ _____    ______ ____
ROOT
ATOM      3  C   UNL     1      44.792  21.580  19.151  0.00  0.00    +0.216 C 
ATOM      4  C   UNL     1      46.260  21.091  19.071  0.00  0.00    +0.106 C 
ATOM      5  C   UNL     1      46.100  19.602  19.220  0.00  0.00    -0.233 A 
ATOM      6  C   UNL     1      44.800  19.372  19.696  0.00  0.00    +0.201 A 
ATOM      7  C   UNL     1      44.347  18.068  19.926  0.00  0.00    -0.054 A 
ATOM      8  C   UNL     1      45.226  17.024  19.677  0.00  0.00    +0.243 A 
ATOM     11  C   UNL     1      46.528  17.261  19.214  0.00  0.00    -0.310 A 
ATOM     12  C   UNL     1      47.451  16.138  18.980  0.00  0.00    +0.420 C 
ATOM     13  O   UNL     1      47.077  14.983  18.955  0.00  0.00    -0.421 OA
ATOM     14  C   UNL     1      48.899  16.528  18.770  0.00  0.00    +0.011 C 
ATOM     15  C   UNL     1      49.675  15.420  18.118  0.00  0.00    -0.159 A 
ATOM     16  C   UNL     1      49.449  14.109  18.498  0.00  0.00    +0.043 A 
ATOM     17  C   UNL     1      50.179  13.080  17.931  0.00  0.00    +0.071 A 
ATOM     20  C   UNL     1      51.145  13.367  16.970  0.00  0.00    +0.144 A 
ATOM     23  C   UNL     1      51.365  14.677  16.584  0.00  0.00    -0.058 A 
ATOM     24  C   UNL     1      50.628  15.711  17.153  0.00  0.00    +0.138 A 
ATOM     25  O   UNL     1      50.873  16.982  16.736  0.00  0.00    -0.299 OA
ATOM     26  C   UNL     1      50.342  18.074  17.492  0.00  0.00    +0.293 C 
ATOM     27  C   UNL     1      48.891  17.747  17.833  0.00  0.00    +0.157 C 
ATOM     28  O   UNL     1      48.229  18.821  18.493  0.00  0.00    -0.282 OA
ATOM     29  C   UNL     1      46.983  18.576  18.966  0.00  0.00    +0.242 A 
ATOM     30  O   UNL     1      44.132  20.529  19.883  0.00  0.00    -0.279 OA
ENDROOT
BRANCH   3   2
ATOM      1  C   UNL     1      44.551  24.179  19.140  0.00  0.00    +0.087 C 
ATOM      2  C   UNL     1      44.705  22.886  19.898  0.00  0.00    -0.134 C 
ATOM     31  C   UNL     1      44.764  22.896  21.207  0.00  0.00    +0.053 C 
ENDBRANCH   3   2
BRANCH   8   9
ATOM      9  O   UNL     1      44.818  15.748  19.887  0.00  0.00    -0.479 OA
ATOM     10  H   UNL     1      43.902  15.673  20.185  0.00  0.00    +0.405 HD
ENDBRANCH   8   9
BRANCH  17  18
ATOM     18  O   UNL     1      49.956  11.792  18.310  0.00  0.00    -0.304 OA
ATOM     19  C   UNL     1      48.625  11.456  18.709  0.00  0.00    +0.239 C 
ENDBRANCH  17  18
BRANCH  20  21
ATOM     21  O   UNL     1      51.870  12.362  16.411  0.00  0.00    -0.299 OA
ATOM     22  C   UNL     1      51.917  12.311  14.984  0.00  0.00    +0.242 C 
ENDBRANCH  20  21
TORSDOF 4
ENDMDL
MODEL 7
REMARK VINA RESULT:      -5.7      3.326      8.745
REMARK  Name = ZINC33857007
REMARK  7 active torsions:
REMARK  status: ('A' for Active; 'I' for Inactive)
REMARK    1  A    between atoms: C1_1  and  C2_2
REMARK    2  A    between atoms: C2_2  and  C4_4
REMARK    3  A    between atoms: C9_10  and  O6_32
REMARK    4  A    between atoms: C16_20  and  O5_30
REMARK    5  A    between atoms: C17_21  and  O4_28
REMARK    6  A    between atoms: O4_28  and  C22_29
REMARK    7  A    between atoms: O5_30  and  C23_31
REMARK                            x       y       z     vdW  Elec       q    Type
REMARK                         _______ _______ _______ _____ _____    ______ ____
ROOT
ATOM      3  C   UNL     1      50.640  11.941  18.217  0.00  0.00    +0.216 C 
ATOM      4  C   UNL     1      50.587  13.425  17.775  0.00  0.00    +0.106 C 
ATOM      5  C   UNL     1      49.143  13.770  18.016  0.00  0.00    -0.233 A 
ATOM      6  C   UNL     1      48.452  12.561  18.186  0.00  0.00    +0.201 A 
ATOM      7  C   UNL     1      47.076  12.558  18.440  0.00  0.00    -0.054 A 
ATOM      8  C   UNL     1      46.427  13.782  18.508  0.00  0.00    +0.243 A 
ATOM     11  C   UNL     1      47.120  14.987  18.325  0.00  0.00    -0.310 A 
ATOM     12  C   UNL     1      46.406  16.273  18.378  0.00  0.00    +0.420 C 
ATOM     13  O   UNL     1      45.269  16.369  18.794  0.00  0.00    -0.421 OA
ATOM     14  C   UNL     1      47.192  17.467  17.879  0.00  0.00    +0.011 C 
ATOM     15  C   UNL     1      46.592  18.757  18.360  0.00  0.00    -0.159 A 
ATOM     16  C   UNL     1      45.217  18.905  18.387  0.00  0.00    +0.043 A 
ATOM     17  C   UNL     1      44.649  20.098  18.796  0.00  0.00    +0.071 A 
ATOM     20  C   UNL     1      45.469  21.155  19.184  0.00  0.00    +0.144 A 
ATOM     23  C   UNL     1      46.843  21.004  19.163  0.00  0.00    -0.058 A 
ATOM     24  C   UNL     1      47.413  19.802  18.755  0.00  0.00    +0.138 A 
ATOM     25  O   UNL     1      48.769  19.697  18.760  0.00  0.00    -0.299 OA
ATOM     26  C   UNL     1      49.381  18.593  18.088  0.00  0.00    +0.293 C 
ATOM     27  C   UNL     1      48.608  17.331  18.460  0.00  0.00    +0.157 C 
ATOM     28  O   UNL     1      49.204  16.150  17.931  0.00  0.00    -0.282 OA
ATOM     29  C   UNL     1      48.513  14.994  18.084  0.00  0.00    +0.242 A 
ATOM     30  O   UNL     1      49.277  11.501  18.061  0.00  0.00    -0.279 OA
ENDROOT
BRANCH   3   2
ATOM      1  C   UNL     1      51.012  10.453  16.105  0.00  0.00    +0.087 C 
ATOM      2  C   UNL     1      51.560  11.151  17.323  0.00  0.00    -0.134 C 
ATOM     31  C   UNL     1      52.837  11.071  17.605  0.00  0.00    +0.053 C 
ENDBRANCH   3   2
BRANCH   8   9
ATOM      9  O   UNL     1      45.094  13.814  18.756  0.00  0.00    -0.479 OA
ATOM     10  H   UNL     1      44.644  14.583  18.381  0.00  0.00    +0.405 HD
ENDBRANCH   8   9
BRANCH  17  18
ATOM     18  O   UNL     1      43.296  20.241  18.819  0.00  0.00    -0.304 OA
ATOM     19  C   UNL     1      42.580  19.465  19.782  0.00  0.00    +0.239 C 
ENDBRANCH  17  18
BRANCH  20  21
ATOM     21  O   UNL     1      44.919  22.333  19.582  0.00  0.00    -0.299 OA
ATOM     22  C   UNL     1      44.753  22.530  20.988  0.00  0.00    +0.242 C 
ENDBRANCH  20  21
TORSDOF 4
ENDMDL
MODEL 8
REMARK VINA RESULT:      -5.4      2.738      8.628
REMARK  Name = ZINC33857007
REMARK  7 active torsions:
REMARK  status: ('A' for Active; 'I' for Inactive)
REMARK    1  A    between atoms: C1_1  and  C2_2
REMARK    2  A    between atoms: C2_2  and  C4_4
REMARK    3  A    between atoms: C9_10  and  O6_32
REMARK    4  A    between atoms: C16_20  and  O5_30
REMARK    5  A    between atoms: C17_21  and  O4_28
REMARK    6  A    between atoms: O4_28  and  C22_29
REMARK    7  A    between atoms: O5_30  and  C23_31
REMARK                            x       y       z     vdW  Elec       q    Type
REMARK                         _______ _______ _______ _____ _____    ______ ____
ROOT
ATOM      3  C   UNL     1      50.698  13.249  19.912  0.00  0.00    +0.216 C 
ATOM      4  C   UNL     1      50.545  14.684  19.349  0.00  0.00    +0.106 C 
ATOM      5  C   UNL     1      49.052  14.870  19.375  0.00  0.00    -0.233 A 
ATOM      6  C   UNL     1      48.480  13.602  19.552  0.00  0.00    +0.201 A 
ATOM      7  C   UNL     1      47.092  13.452  19.627  0.00  0.00    -0.054 A 
ATOM      8  C   UNL     1      46.310  14.592  19.513  0.00  0.00    +0.243 A 
ATOM     11  C   UNL     1      46.887  15.856  19.324  0.00  0.00    -0.310 A 
ATOM     12  C   UNL     1      46.035  17.049  19.182  0.00  0.00    +0.420 C 
ATOM     13  O   UNL     1      44.849  17.036  19.440  0.00  0.00    -0.421 OA
ATOM     14  C   UNL     1      46.747  18.293  18.693  0.00  0.00    +0.011 C 
ATOM     15  C   UNL     1      45.951  19.531  18.988  0.00  0.00    -0.159 A 
ATOM     16  C   UNL     1      44.577  19.516  18.827  0.00  0.00    +0.043 A 
ATOM     17  C   UNL     1      43.833  20.658  19.063  0.00  0.00    +0.071 A 
ATOM     20  C   UNL     1      44.472  21.828  19.466  0.00  0.00    +0.144 A 
ATOM     23  C   UNL     1      45.845  21.840  19.634  0.00  0.00    -0.058 A 
ATOM     24  C   UNL     1      46.592  20.689  19.400  0.00  0.00    +0.138 A 
ATOM     25  O   UNL     1      47.938  20.747  19.587  0.00  0.00    -0.299 OA
ATOM     26  C   UNL     1      48.752  19.681  19.090  0.00  0.00    +0.293 C 
ATOM     27  C   UNL     1      48.078  18.363  19.459  0.00  0.00    +0.157 C 
ATOM     28  O   UNL     1      48.865  17.230  19.108  0.00  0.00    -0.282 OA
ATOM     29  C   UNL     1      48.290  16.013  19.263  0.00  0.00    +0.242 A 
ATOM     30  O   UNL     1      49.425  12.641  19.619  0.00  0.00    -0.279 OA
ENDROOT
BRANCH   3   2
ATOM      1  C   UNL     1      53.244  12.747  19.623  0.00  0.00    +0.087 C 
ATOM      2  C   UNL     1      51.813  12.517  19.210  0.00  0.00    -0.134 C 
ATOM     31  C   UNL     1      51.537  11.680  18.239  0.00  0.00    +0.053 C 
ENDBRANCH   3   2
BRANCH   8   9
ATOM      9  O   UNL     1      44.960  14.482  19.585  0.00  0.00    -0.479 OA
ATOM     10  H   UNL     1      44.487  15.285  19.331  0.00  0.00    +0.405 HD
ENDBRANCH   8   9
BRANCH  17  18
ATOM     18  O   UNL     1      42.481  20.640  18.901  0.00  0.00    -0.304 OA
ATOM     19  C   UNL     1      41.755  19.651  19.632  0.00  0.00    +0.239 C 
ENDBRANCH  17  18
BRANCH  20  21
ATOM     21  O   UNL     1      43.748  22.956  19.695  0.00  0.00    -0.299 OA
ATOM     22  C   UNL     1      44.214  24.161  19.086  0.00  0.00    +0.242 C 
ENDBRANCH  20  21
TORSDOF 4
ENDMDL
MODEL 9
REMARK VINA RESULT:      -5.3      3.569      4.932
REMARK  Name = ZINC33857007
REMARK  7 active torsions:
REMARK  status: ('A' for Active; 'I' for Inactive)
REMARK    1  A    between atoms: C1_1  and  C2_2
REMARK    2  A    between atoms: C2_2  and  C4_4
REMARK    3  A    between atoms: C9_10  and  O6_32
REMARK    4  A    between atoms: C16_20  and  O5_30
REMARK    5  A    between atoms: C17_21  and  O4_28
REMARK    6  A    between atoms: O4_28  and  C22_29
REMARK    7  A    between atoms: O5_30  and  C23_31
REMARK                            x       y       z     vdW  Elec       q    Type
REMARK                         _______ _______ _______ _____ _____    ______ ____
ROOT
ATOM      3  C   UNL     1      42.829  19.928  19.174  0.00  0.00    +0.216 C 
ATOM      4  C   UNL     1      44.294  19.646  18.755  0.00  0.00    +0.106 C 
ATOM      5  C   UNL     1      44.636  18.453  19.606  0.00  0.00    -0.233 A 
ATOM      6  C   UNL     1      43.651  18.359  20.600  0.00  0.00    +0.201 A 
ATOM      7  C   UNL     1      43.693  17.331  21.548  0.00  0.00    -0.054 A 
ATOM      8  C   UNL     1      44.740  16.423  21.473  0.00  0.00    +0.243 A 
ATOM     11  C   UNL     1      45.728  16.530  20.485  0.00  0.00    -0.310 A 
ATOM     12  C   UNL     1      46.843  15.569  20.439  0.00  0.00    +0.420 C 
ATOM     13  O   UNL     1      46.842  14.540  21.085  0.00  0.00    -0.421 OA
ATOM     14  C   UNL     1      47.989  15.955  19.528  0.00  0.00    +0.011 C 
ATOM     15  C   UNL     1      48.849  14.770  19.198  0.00  0.00    -0.159 A 
ATOM     16  C   UNL     1      49.143  13.841  20.181  0.00  0.00    +0.043 A 
ATOM     17  C   UNL     1      49.961  12.762  19.902  0.00  0.00    +0.071 A 
ATOM     20  C   UNL     1      50.490  12.608  18.623  0.00  0.00    +0.144 A 
ATOM     23  C   UNL     1      50.190  13.533  17.639  0.00  0.00    -0.058 A 
ATOM     24  C   UNL     1      49.364  14.617  17.920  0.00  0.00    +0.138 A 
ATOM     25  O   UNL     1      49.091  15.495  16.918  0.00  0.00    -0.299 OA
ATOM     26  C   UNL     1      48.487  16.751  17.243  0.00  0.00    +0.293 C 
ATOM     27  C   UNL     1      47.356  16.486  18.232  0.00  0.00    +0.157 C 
ATOM     28  O   UNL     1      46.612  17.661  18.538  0.00  0.00    -0.282 OA
ATOM     29  C   UNL     1      45.680  17.559  19.516  0.00  0.00    +0.242 A 
ATOM     30  O   UNL     1      42.746  19.354  20.492  0.00  0.00    -0.279 OA
ENDROOT
BRANCH   3   2
ATOM      1  C   UNL     1      41.239  21.956  18.757  0.00  0.00    +0.087 C 
ATOM      2  C   UNL     1      42.565  21.411  19.222  0.00  0.00    -0.134 C 
ATOM     31  C   UNL     1      43.489  22.227  19.667  0.00  0.00    +0.053 C 
ENDBRANCH   3   2
BRANCH   8   9
ATOM      9  O   UNL     1      44.809  15.413  22.374  0.00  0.00    -0.479 OA
ATOM     10  H   UNL     1      45.324  15.625  23.163  0.00  0.00    +0.405 HD
ENDBRANCH   8   9
BRANCH  17  18
ATOM     18  O   UNL     1      50.249  11.852  20.872  0.00  0.00    -0.304 OA
ATOM     19  C   UNL     1      49.149  11.127  21.427  0.00  0.00    +0.239 C 
ENDBRANCH  17  18
BRANCH  20  21
ATOM     21  O   UNL     1      51.298  11.552  18.341  0.00  0.00    -0.299 OA
ATOM     22  C   UNL     1      52.690  11.828  18.168  0.00  0.00    +0.242 C 
ENDBRANCH  20  21
TORSDOF 4
ENDMDL
