MODEL 1
REMARK VINA RESULT:      -6.5      0.000      0.000
REMARK  Name = ZINC14645872
REMARK  5 active torsions:
REMARK  status: ('A' for Active; 'I' for Inactive)
REMARK    1  A    between atoms: C1_1  and  O1_2
REMARK    2  A    between atoms: O1_2  and  C2_3
REMARK    3  A    between atoms: C3_4  and  C8_10
REMARK    4  A    between atoms: C7_8  and  O2_9
REMARK    5  A    between atoms: C14_17  and  O5_21
REMARK                            x       y       z     vdW  Elec       q    Type
REMARK                         _______ _______ _______ _____ _____    ______ ____
ROOT
ATOM      5  C   UNL     1      45.126  18.698  19.724  0.00  0.00    -0.231 A 
ATOM      6  C   UNL     1      44.750  17.781  20.652  0.00  0.00    +0.335 A 
ATOM      7  O   UNL     1      44.923  16.468  20.475  0.00  0.00    -0.212 OA
ATOM      8  C   UNL     1      45.484  15.937  19.370  0.00  0.00    +0.177 A 
ATOM      9  C   UNL     1      45.635  14.564  19.248  0.00  0.00    +0.023 A 
ATOM     10  C   UNL     1      46.213  14.023  18.111  0.00  0.00    +0.119 A 
ATOM     11  C   UNL     1      46.649  14.850  17.075  0.00  0.00    -0.026 A 
ATOM     12  O   UNL     1      47.175  14.071  16.084  0.00  0.00    -0.292 OA
ATOM     13  C   UNL     1      47.429  12.793  16.697  0.00  0.00    +0.444 C 
ATOM     14  C   UNL     1      46.504  16.224  17.179  0.00  0.00    +0.219 A 
ATOM     17  O   UNL     1      46.466  12.727  17.764  0.00  0.00    -0.295 OA
ATOM     18  C   UNL     1      45.921  16.773  18.327  0.00  0.00    -0.241 A 
ATOM     19  C   UNL     1      45.750  18.227  18.476  0.00  0.00    +0.434 A 
ATOM     20  O   UNL     1      46.108  19.005  17.607  0.00  0.00    -0.420 OA
ENDROOT
BRANCH   5   4
ATOM      3  C   UNL     1      43.763  20.775  19.480  0.00  0.00    +0.098 A 
ATOM      4  C   UNL     1      44.913  20.147  19.964  0.00  0.00    -0.035 A 
ATOM     21  C   UNL     1      45.856  20.884  20.677  0.00  0.00    +0.031 A 
ATOM     22  C   UNL     1      45.658  22.233  20.894  0.00  0.00    +0.028 A 
ATOM     23  C   UNL     1      44.521  22.857  20.414  0.00  0.00    +0.010 A 
ATOM     24  C   UNL     1      43.571  22.132  19.709  0.00  0.00    +0.089 A 
BRANCH   3   2
ATOM      1  C   UNL     1      41.686  19.617  19.513  0.00  0.00    +0.220 C 
ATOM      2  O   UNL     1      42.834  20.062  18.788  0.00  0.00    -0.317 OA
ENDBRANCH   3   2
BRANCH  24  25
ATOM     25  O   UNL     1      42.455  22.750  19.240  0.00  0.00    -0.484 OA
ATOM     26  H   UNL     1      42.514  23.019  18.313  0.00  0.00    +0.387 HD
ENDBRANCH  24  25
ENDBRANCH   5   4
BRANCH  14  15
ATOM     15  O   UNL     1      46.926  17.033  16.172  0.00  0.00    -0.462 OA
ATOM     16  H   UNL     1      46.284  17.709  15.915  0.00  0.00    +0.402 HD
ENDBRANCH  14  15
TORSDOF 4
ENDMDL
MODEL 2
REMARK VINA RESULT:      -6.0      2.098      3.114
REMARK  Name = ZINC14645872
REMARK  5 active torsions:
REMARK  status: ('A' for Active; 'I' for Inactive)
REMARK    1  A    between atoms: C1_1  and  O1_2
REMARK    2  A    between atoms: O1_2  and  C2_3
REMARK    3  A    between atoms: C3_4  and  C8_10
REMARK    4  A    between atoms: C7_8  and  O2_9
REMARK    5  A    between atoms: C14_17  and  O5_21
REMARK                            x       y       z     vdW  Elec       q    Type
REMARK                         _______ _______ _______ _____ _____    ______ ____
ROOT
ATOM      5  C   UNL     1      43.367  18.860  20.462  0.00  0.00    -0.231 A 
ATOM      6  C   UNL     1      42.903  18.399  21.652  0.00  0.00    +0.335 A 
ATOM      7  O   UNL     1      43.332  17.258  22.197  0.00  0.00    -0.212 OA
ATOM      8  C   UNL     1      44.258  16.464  21.622  0.00  0.00    +0.177 A 
ATOM      9  C   UNL     1      44.662  15.291  22.241  0.00  0.00    +0.023 A 
ATOM     10  C   UNL     1      45.615  14.479  21.648  0.00  0.00    +0.119 A 
ATOM     11  C   UNL     1      46.181  14.832  20.422  0.00  0.00    -0.026 A 
ATOM     12  O   UNL     1      47.084  13.871  20.064  0.00  0.00    -0.292 OA
ATOM     13  C   UNL     1      47.363  13.140  21.274  0.00  0.00    +0.444 C 
ATOM     14  C   UNL     1      45.790  16.000  19.788  0.00  0.00    +0.219 A 
ATOM     17  O   UNL     1      46.164  13.297  22.054  0.00  0.00    -0.295 OA
ATOM     18  C   UNL     1      44.826  16.821  20.387  0.00  0.00    -0.241 A 
ATOM     19  C   UNL     1      44.385  18.070  19.746  0.00  0.00    +0.434 A 
ATOM     20  O   UNL     1      44.838  18.434  18.674  0.00  0.00    -0.420 OA
ENDROOT
BRANCH   5   4
ATOM      3  C   UNL     1      43.557  21.324  20.113  0.00  0.00    +0.098 A 
ATOM      4  C   UNL     1      42.860  20.133  19.895  0.00  0.00    -0.035 A 
ATOM     21  C   UNL     1      41.690  20.146  19.139  0.00  0.00    +0.031 A 
ATOM     22  C   UNL     1      41.217  21.333  18.617  0.00  0.00    +0.028 A 
ATOM     23  C   UNL     1      41.906  22.513  18.833  0.00  0.00    +0.010 A 
ATOM     24  C   UNL     1      43.075  22.512  19.578  0.00  0.00    +0.089 A 
BRANCH   3   2
ATOM      1  C   UNL     1      45.934  21.406  20.124  0.00  0.00    +0.220 C 
ATOM      2  O   UNL     1      44.704  21.320  20.846  0.00  0.00    -0.317 OA
ENDBRANCH   3   2
BRANCH  24  25
ATOM     25  O   UNL     1      43.749  23.675  19.788  0.00  0.00    -0.484 OA
ATOM     26  H   UNL     1      44.553  23.764  19.258  0.00  0.00    +0.387 HD
ENDBRANCH  24  25
ENDBRANCH   5   4
BRANCH  14  15
ATOM     15  O   UNL     1      46.338  16.346  18.594  0.00  0.00    -0.462 OA
ATOM     16  H   UNL     1      46.847  17.168  18.619  0.00  0.00    +0.402 HD
ENDBRANCH  14  15
TORSDOF 4
ENDMDL
MODEL 3
REMARK VINA RESULT:      -5.9      1.064      2.319
REMARK  Name = ZINC14645872
REMARK  5 active torsions:
REMARK  status: ('A' for Active; 'I' for Inactive)
REMARK    1  A    between atoms: C1_1  and  O1_2
REMARK    2  A    between atoms: O1_2  and  C2_3
REMARK    3  A    between atoms: C3_4  and  C8_10
REMARK    4  A    between atoms: C7_8  and  O2_9
REMARK    5  A    between atoms: C14_17  and  O5_21
REMARK                            x       y       z     vdW  Elec       q    Type
REMARK                         _______ _______ _______ _____ _____    ______ ____
ROOT
ATOM      5  C   UNL     1      45.844  19.416  19.260  0.00  0.00    -0.231 A 
ATOM      6  C   UNL     1      46.433  19.334  18.040  0.00  0.00    +0.335 A 
ATOM      7  O   UNL     1      46.660  18.169  17.428  0.00  0.00    -0.212 OA
ATOM      8  C   UNL     1      46.327  16.975  17.961  0.00  0.00    +0.177 A 
ATOM      9  C   UNL     1      46.589  15.800  17.273  0.00  0.00    +0.023 A 
ATOM     10  C   UNL     1      46.243  14.576  17.824  0.00  0.00    +0.119 A 
ATOM     11  C   UNL     1      45.628  14.511  19.074  0.00  0.00    -0.026 A 
ATOM     12  O   UNL     1      45.395  13.199  19.379  0.00  0.00    -0.292 OA
ATOM     13  C   UNL     1      45.501  12.492  18.130  0.00  0.00    +0.444 C 
ATOM     14  C   UNL     1      45.359  15.675  19.776  0.00  0.00    +0.219 A 
ATOM     17  O   UNL     1      46.396  13.305  17.350  0.00  0.00    -0.295 OA
ATOM     18  C   UNL     1      45.707  16.912  19.222  0.00  0.00    -0.241 A 
ATOM     19  C   UNL     1      45.438  18.170  19.935  0.00  0.00    +0.434 A 
ATOM     20  O   UNL     1      44.905  18.183  21.031  0.00  0.00    -0.420 OA
ENDROOT
BRANCH   5   4
ATOM      3  C   UNL     1      44.411  21.413  19.693  0.00  0.00    +0.098 A 
ATOM      4  C   UNL     1      45.614  20.734  19.901  0.00  0.00    -0.035 A 
ATOM     21  C   UNL     1      46.593  21.296  20.717  0.00  0.00    +0.031 A 
ATOM     22  C   UNL     1      46.379  22.525  21.308  0.00  0.00    +0.028 A 
ATOM     23  C   UNL     1      45.189  23.199  21.102  0.00  0.00    +0.010 A 
ATOM     24  C   UNL     1      44.203  22.647  20.297  0.00  0.00    +0.089 A 
BRANCH   3   2
ATOM      1  C   UNL     1      42.377  20.189  19.560  0.00  0.00    +0.220 C 
ATOM      2  O   UNL     1      43.447  20.869  18.902  0.00  0.00    -0.317 OA
ENDBRANCH   3   2
BRANCH  24  25
ATOM     25  O   UNL     1      43.036  23.314  20.097  0.00  0.00    -0.484 OA
ATOM     26  H   UNL     1      42.350  22.786  19.666  0.00  0.00    +0.387 HD
ENDBRANCH  24  25
ENDBRANCH   5   4
BRANCH  14  15
ATOM     15  O   UNL     1      44.760  15.615  20.995  0.00  0.00    -0.462 OA
ATOM     16  H   UNL     1      44.415  14.740  21.220  0.00  0.00    +0.402 HD
ENDBRANCH  14  15
TORSDOF 4
ENDMDL
MODEL 4
REMARK VINA RESULT:      -5.8      2.961      4.644
REMARK  Name = ZINC14645872
REMARK  5 active torsions:
REMARK  status: ('A' for Active; 'I' for Inactive)
REMARK    1  A    between atoms: C1_1  and  O1_2
REMARK    2  A    between atoms: O1_2  and  C2_3
REMARK    3  A    between atoms: C3_4  and  C8_10
REMARK    4  A    between atoms: C7_8  and  O2_9
REMARK    5  A    between atoms: C14_17  and  O5_21
REMARK                            x       y       z     vdW  Elec       q    Type
REMARK                         _______ _______ _______ _____ _____    ______ ____
ROOT
ATOM      5  C   UNL     1      45.286  19.968  19.574  0.00  0.00    -0.231 A 
ATOM      6  C   UNL     1      45.910  21.056  20.092  0.00  0.00    +0.335 A 
ATOM      7  O   UNL     1      47.230  21.236  20.007  0.00  0.00    -0.212 OA
ATOM      8  C   UNL     1      48.059  20.361  19.402  0.00  0.00    +0.177 A 
ATOM      9  C   UNL     1      49.423  20.607  19.347  0.00  0.00    +0.023 A 
ATOM     10  C   UNL     1      50.271  19.707  18.722  0.00  0.00    +0.119 A 
ATOM     11  C   UNL     1      49.765  18.543  18.142  0.00  0.00    -0.026 A 
ATOM     12  O   UNL     1      50.802  17.838  17.599  0.00  0.00    -0.292 OA
ATOM     13  C   UNL     1      51.889  18.777  17.494  0.00  0.00    +0.444 C 
ATOM     14  C   UNL     1      48.405  18.280  18.188  0.00  0.00    +0.219 A 
ATOM     17  O   UNL     1      51.624  19.726  18.543  0.00  0.00    -0.295 OA
ATOM     18  C   UNL     1      47.547  19.189  18.819  0.00  0.00    -0.241 A 
ATOM     19  C   UNL     1      46.098  18.947  18.888  0.00  0.00    +0.434 A 
ATOM     20  O   UNL     1      45.592  17.949  18.403  0.00  0.00    -0.420 OA
ENDROOT
BRANCH   5   4
ATOM      3  C   UNL     1      43.271  19.118  20.778  0.00  0.00    +0.098 A 
ATOM      4  C   UNL     1      43.816  19.811  19.694  0.00  0.00    -0.035 A 
ATOM     21  C   UNL     1      42.973  20.357  18.729  0.00  0.00    +0.031 A 
ATOM     22  C   UNL     1      41.605  20.205  18.839  0.00  0.00    +0.028 A 
ATOM     23  C   UNL     1      41.065  19.519  19.911  0.00  0.00    +0.010 A 
ATOM     24  C   UNL     1      41.893  18.975  20.882  0.00  0.00    +0.089 A 
BRANCH   3   2
ATOM      1  C   UNL     1      44.346  17.183  21.647  0.00  0.00    +0.220 C 
ATOM      2  O   UNL     1      44.086  18.585  21.728  0.00  0.00    -0.317 OA
ENDBRANCH   3   2
BRANCH  24  25
ATOM     25  O   UNL     1      41.357  18.301  21.934  0.00  0.00    -0.484 OA
ATOM     26  H   UNL     1      41.046  18.873  22.650  0.00  0.00    +0.387 HD
ENDBRANCH  24  25
ENDBRANCH   5   4
BRANCH  14  15
ATOM     15  O   UNL     1      47.909  17.148  17.625  0.00  0.00    -0.462 OA
ATOM     16  H   UNL     1      47.944  17.141  16.659  0.00  0.00    +0.402 HD
ENDBRANCH  14  15
TORSDOF 4
ENDMDL
MODEL 5
REMARK VINA RESULT:      -5.7      3.139      4.612
REMARK  Name = ZINC14645872
REMARK  5 active torsions:
REMARK  status: ('A' for Active; 'I' for Inactive)
REMARK    1  A    between atoms: C1_1  and  O1_2
REMARK    2  A    between atoms: O1_2  and  C2_3
REMARK    3  A    between atoms: C3_4  and  C8_10
REMARK    4  A    between atoms: C7_8  and  O2_9
REMARK    5  A    between atoms: C14_17  and  O5_21
REMARK                            x       y       z     vdW  Elec       q    Type
REMARK                         _______ _______ _______ _____ _____    ______ ____
ROOT
ATOM      5  C   UNL     1      45.696  17.980  19.559  0.00  0.00    -0.231 A 
ATOM      6  C   UNL     1      45.822  17.123  18.514  0.00  0.00    +0.335 A 
ATOM      7  O   UNL     1      46.943  17.026  17.795  0.00  0.00    -0.212 OA
ATOM      8  C   UNL     1      48.046  17.763  18.041  0.00  0.00    +0.177 A 
ATOM      9  C   UNL     1      49.181  17.614  17.257  0.00  0.00    +0.023 A 
ATOM     10  C   UNL     1      50.312  18.371  17.513  0.00  0.00    +0.119 A 
ATOM     11  C   UNL     1      50.324  19.292  18.561  0.00  0.00    -0.026 A 
ATOM     12  O   UNL     1      51.549  19.899  18.596  0.00  0.00    -0.292 OA
ATOM     13  C   UNL     1      52.417  19.050  17.822  0.00  0.00    +0.444 C 
ATOM     14  C   UNL     1      49.200  19.456  19.354  0.00  0.00    +0.219 A 
ATOM     17  O   UNL     1      51.528  18.405  16.893  0.00  0.00    -0.295 OA
ATOM     18  C   UNL     1      48.056  18.691  19.096  0.00  0.00    -0.241 A 
ATOM     19  C   UNL     1      46.842  18.834  19.916  0.00  0.00    +0.434 A 
ATOM     20  O   UNL     1      46.787  19.622  20.845  0.00  0.00    -0.420 OA
ENDROOT
BRANCH   5   4
ATOM      3  C   UNL     1      43.456  18.995  19.986  0.00  0.00    +0.098 A 
ATOM      4  C   UNL     1      44.429  18.054  20.328  0.00  0.00    -0.035 A 
ATOM     21  C   UNL     1      44.204  17.181  21.391  0.00  0.00    +0.031 A 
ATOM     22  C   UNL     1      43.027  17.256  22.109  0.00  0.00    +0.028 A 
ATOM     23  C   UNL     1      42.063  18.188  21.771  0.00  0.00    +0.010 A 
ATOM     24  C   UNL     1      42.272  19.058  20.712  0.00  0.00    +0.089 A 
BRANCH   3   2
ATOM      1  C   UNL     1      44.051  21.184  19.272  0.00  0.00    +0.220 C 
ATOM      2  O   UNL     1      43.665  19.847  18.946  0.00  0.00    -0.317 OA
ENDBRANCH   3   2
BRANCH  24  25
ATOM     25  O   UNL     1      41.322  19.972  20.384  0.00  0.00    -0.484 OA
ATOM     26  H   UNL     1      40.696  19.666  19.713  0.00  0.00    +0.387 HD
ENDBRANCH  24  25
ENDBRANCH   5   4
BRANCH  14  15
ATOM     15  O   UNL     1      49.209  20.352  20.375  0.00  0.00    -0.462 OA
ATOM     16  H   UNL     1      50.091  20.662  20.619  0.00  0.00    +0.402 HD
ENDBRANCH  14  15
TORSDOF 4
ENDMDL
MODEL 6
REMARK VINA RESULT:      -5.7      1.316      2.145
REMARK  Name = ZINC14645872
REMARK  5 active torsions:
REMARK  status: ('A' for Active; 'I' for Inactive)
REMARK    1  A    between atoms: C1_1  and  O1_2
REMARK    2  A    between atoms: O1_2  and  C2_3
REMARK    3  A    between atoms: C3_4  and  C8_10
REMARK    4  A    between atoms: C7_8  and  O2_9
REMARK    5  A    between atoms: C14_17  and  O5_21
REMARK                            x       y       z     vdW  Elec       q    Type
REMARK                         _______ _______ _______ _____ _____    ______ ____
ROOT
ATOM      5  C   UNL     1      45.092  18.704  19.711  0.00  0.00    -0.231 A 
ATOM      6  C   UNL     1      44.702  17.790  20.635  0.00  0.00    +0.335 A 
ATOM      7  O   UNL     1      44.882  16.477  20.468  0.00  0.00    -0.212 OA
ATOM      8  C   UNL     1      45.464  15.942  19.376  0.00  0.00    +0.177 A 
ATOM      9  C   UNL     1      45.621  14.568  19.263  0.00  0.00    +0.023 A 
ATOM     10  C   UNL     1      46.221  14.023  18.139  0.00  0.00    +0.119 A 
ATOM     11  C   UNL     1      46.674  14.848  17.109  0.00  0.00    -0.026 A 
ATOM     12  O   UNL     1      47.220  14.065  16.131  0.00  0.00    -0.292 OA
ATOM     13  C   UNL     1      47.466  12.790  16.755  0.00  0.00    +0.444 C 
ATOM     14  C   UNL     1      46.524  16.222  17.203  0.00  0.00    +0.219 A 
ATOM     17  O   UNL     1      46.483  12.726  17.804  0.00  0.00    -0.295 OA
ATOM     18  C   UNL     1      45.918  16.774  18.338  0.00  0.00    -0.241 A 
ATOM     19  C   UNL     1      45.741  18.228  18.476  0.00  0.00    +0.434 A 
ATOM     20  O   UNL     1      46.113  19.003  17.611  0.00  0.00    -0.420 OA
ENDROOT
BRANCH   5   4
ATOM      3  C   UNL     1      45.853  20.920  20.571  0.00  0.00    +0.098 A 
ATOM      4  C   UNL     1      44.871  20.153  19.940  0.00  0.00    -0.035 A 
ATOM     21  C   UNL     1      43.686  20.754  19.522  0.00  0.00    +0.031 A 
ATOM     22  C   UNL     1      43.480  22.101  19.741  0.00  0.00    +0.028 A 
ATOM     23  C   UNL     1      44.451  22.862  20.367  0.00  0.00    +0.010 A 
ATOM     24  C   UNL     1      45.637  22.276  20.782  0.00  0.00    +0.089 A 
BRANCH   3   2
ATOM      1  C   UNL     1      48.156  20.519  20.137  0.00  0.00    +0.220 C 
ATOM      2  O   UNL     1      47.015  20.342  20.978  0.00  0.00    -0.317 OA
ENDBRANCH   3   2
BRANCH  24  25
ATOM     25  O   UNL     1      46.588  23.028  21.397  0.00  0.00    -0.484 OA
ATOM     26  H   UNL     1      46.276  23.897  21.688  0.00  0.00    +0.387 HD
ENDBRANCH  24  25
ENDBRANCH   5   4
BRANCH  14  15
ATOM     15  O   UNL     1      46.963  17.027  16.201  0.00  0.00    -0.462 OA
ATOM     16  H   UNL     1      47.733  16.682  15.728  0.00  0.00    +0.402 HD
ENDBRANCH  14  15
TORSDOF 4
ENDMDL
MODEL 7
REMARK VINA RESULT:      -5.6      3.237      6.291
REMARK  Name = ZINC14645872
REMARK  5 active torsions:
REMARK  status: ('A' for Active; 'I' for Inactive)
REMARK    1  A    between atoms: C1_1  and  O1_2
REMARK    2  A    between atoms: O1_2  and  C2_3
REMARK    3  A    between atoms: C3_4  and  C8_10
REMARK    4  A    between atoms: C7_8  and  O2_9
REMARK    5  A    between atoms: C14_17  and  O5_21
REMARK                            x       y       z     vdW  Elec       q    Type
REMARK                         _______ _______ _______ _____ _____    ______ ____
ROOT
ATOM      5  C   UNL     1      47.975  19.486  19.730  0.00  0.00    -0.231 A 
ATOM      6  C   UNL     1      48.065  19.102  21.029  0.00  0.00    +0.335 A 
ATOM      7  O   UNL     1      46.990  18.921  21.801  0.00  0.00    -0.212 OA
ATOM      8  C   UNL     1      45.727  19.100  21.365  0.00  0.00    +0.177 A 
ATOM      9  C   UNL     1      44.652  18.895  22.218  0.00  0.00    +0.023 A 
ATOM     10  C   UNL     1      43.356  19.079  21.766  0.00  0.00    +0.119 A 
ATOM     11  C   UNL     1      43.115  19.472  20.449  0.00  0.00    -0.026 A 
ATOM     12  O   UNL     1      41.765  19.579  20.265  0.00  0.00    -0.292 OA
ATOM     13  C   UNL     1      41.171  18.853  21.358  0.00  0.00    +0.444 C 
ATOM     14  C   UNL     1      44.175  19.683  19.583  0.00  0.00    +0.219 A 
ATOM     17  O   UNL     1      42.156  18.942  22.403  0.00  0.00    -0.295 OA
ATOM     18  C   UNL     1      45.486  19.498  20.038  0.00  0.00    -0.241 A 
ATOM     19  C   UNL     1      46.639  19.710  19.150  0.00  0.00    +0.434 A 
ATOM     20  O   UNL     1      46.497  20.056  17.989  0.00  0.00    -0.420 OA
ENDROOT
BRANCH   5   4
ATOM      3  C   UNL     1      49.726  18.607  18.183  0.00  0.00    +0.098 A 
ATOM      4  C   UNL     1      49.198  19.676  18.911  0.00  0.00    -0.035 A 
ATOM     21  C   UNL     1      49.820  20.921  18.862  0.00  0.00    +0.031 A 
ATOM     22  C   UNL     1      50.961  21.094  18.104  0.00  0.00    +0.028 A 
ATOM     23  C   UNL     1      51.486  20.037  17.383  0.00  0.00    +0.010 A 
ATOM     24  C   UNL     1      50.871  18.794  17.419  0.00  0.00    +0.089 A 
BRANCH   3   2
ATOM      1  C   UNL     1      48.255  17.061  17.134  0.00  0.00    +0.220 C 
ATOM      2  O   UNL     1      49.121  17.389  18.221  0.00  0.00    -0.317 OA
ENDBRANCH   3   2
BRANCH  24  25
ATOM     25  O   UNL     1      51.391  17.758  16.709  0.00  0.00    -0.484 OA
ATOM     26  H   UNL     1      51.563  16.965  17.237  0.00  0.00    +0.387 HD
ENDBRANCH  24  25
ENDBRANCH   5   4
BRANCH  14  15
ATOM     15  O   UNL     1      43.944  20.067  18.300  0.00  0.00    -0.462 OA
ATOM     16  H   UNL     1      44.113  21.004  18.134  0.00  0.00    +0.402 HD
ENDBRANCH  14  15
TORSDOF 4
ENDMDL
MODEL 8
REMARK VINA RESULT:      -5.6      3.224      4.767
REMARK  Name = ZINC14645872
REMARK  5 active torsions:
REMARK  status: ('A' for Active; 'I' for Inactive)
REMARK    1  A    between atoms: C1_1  and  O1_2
REMARK    2  A    between atoms: O1_2  and  C2_3
REMARK    3  A    between atoms: C3_4  and  C8_10
REMARK    4  A    between atoms: C7_8  and  O2_9
REMARK    5  A    between atoms: C14_17  and  O5_21
REMARK                            x       y       z     vdW  Elec       q    Type
REMARK                         _______ _______ _______ _____ _____    ______ ____
ROOT
ATOM      5  C   UNL     1      45.611  18.687  18.877  0.00  0.00    -0.231 A 
ATOM      6  C   UNL     1      45.832  17.627  18.058  0.00  0.00    +0.335 A 
ATOM      7  O   UNL     1      47.049  17.305  17.612  0.00  0.00    -0.212 OA
ATOM      8  C   UNL     1      48.162  17.995  17.933  0.00  0.00    +0.177 A 
ATOM      9  C   UNL     1      49.398  17.608  17.436  0.00  0.00    +0.023 A 
ATOM     10  C   UNL     1      50.539  18.320  17.770  0.00  0.00    +0.119 A 
ATOM     11  C   UNL     1      50.460  19.433  18.607  0.00  0.00    -0.026 A 
ATOM     12  O   UNL     1      51.716  19.944  18.774  0.00  0.00    -0.292 OA
ATOM     13  C   UNL     1      52.613  18.895  18.365  0.00  0.00    +0.444 C 
ATOM     14  C   UNL     1      49.234  19.835  19.112  0.00  0.00    +0.219 A 
ATOM     17  O   UNL     1      51.844  18.138  17.413  0.00  0.00    -0.295 OA
ATOM     18  C   UNL     1      48.080  19.117  18.776  0.00  0.00    -0.241 A 
ATOM     19  C   UNL     1      46.759  19.512  19.292  0.00  0.00    +0.434 A 
ATOM     20  O   UNL     1      46.622  20.476  20.026  0.00  0.00    -0.420 OA
ENDROOT
BRANCH   5   4
ATOM      3  C   UNL     1      43.732  18.394  20.494  0.00  0.00    +0.098 A 
ATOM      4  C   UNL     1      44.241  19.007  19.346  0.00  0.00    -0.035 A 
ATOM     21  C   UNL     1      43.458  19.923  18.647  0.00  0.00    +0.031 A 
ATOM     22  C   UNL     1      42.181  20.215  19.082  0.00  0.00    +0.028 A 
ATOM     23  C   UNL     1      41.676  19.608  20.218  0.00  0.00    +0.010 A 
ATOM     24  C   UNL     1      42.447  18.700  20.927  0.00  0.00    +0.089 A 
BRANCH   3   2
ATOM      1  C   UNL     1      45.205  18.001  22.319  0.00  0.00    +0.220 C 
ATOM      2  O   UNL     1      44.491  17.503  21.186  0.00  0.00    -0.317 OA
ENDBRANCH   3   2
BRANCH  24  25
ATOM     25  O   UNL     1      41.946  18.106  22.042  0.00  0.00    -0.484 OA
ATOM     26  H   UNL     1      42.609  17.926  22.723  0.00  0.00    +0.387 HD
ENDBRANCH  24  25
ENDBRANCH   5   4
BRANCH  14  15
ATOM     15  O   UNL     1      49.153  20.919  19.927  0.00  0.00    -0.462 OA
ATOM     16  H   UNL     1      48.702  21.676  19.530  0.00  0.00    +0.402 HD
ENDBRANCH  14  15
TORSDOF 4
ENDMDL
MODEL 9
REMARK VINA RESULT:      -5.4      4.952      6.093
REMARK  Name = ZINC14645872
REMARK  5 active torsions:
REMARK  status: ('A' for Active; 'I' for Inactive)
REMARK    1  A    between atoms: C1_1  and  O1_2
REMARK    2  A    between atoms: O1_2  and  C2_3
REMARK    3  A    between atoms: C3_4  and  C8_10
REMARK    4  A    between atoms: C7_8  and  O2_9
REMARK    5  A    between atoms: C14_17  and  O5_21
REMARK                            x       y       z     vdW  Elec       q    Type
REMARK                         _______ _______ _______ _____ _____    ______ ____
ROOT
ATOM      5  C   UNL     1      50.639  17.079  17.183  0.00  0.00    -0.231 A 
ATOM      6  C   UNL     1      51.499  16.063  17.449  0.00  0.00    +0.335 A 
ATOM      7  O   UNL     1      51.092  14.804  17.631  0.00  0.00    -0.212 OA
ATOM      8  C   UNL     1      49.798  14.428  17.566  0.00  0.00    +0.177 A 
ATOM      9  C   UNL     1      49.440  13.103  17.765  0.00  0.00    +0.023 A 
ATOM     10  C   UNL     1      48.110  12.721  17.696  0.00  0.00    +0.119 A 
ATOM     11  C   UNL     1      47.116  13.662  17.428  0.00  0.00    -0.026 A 
ATOM     12  O   UNL     1      45.905  13.028  17.415  0.00  0.00    -0.292 OA
ATOM     13  C   UNL     1      46.209  11.628  17.272  0.00  0.00    +0.444 C 
ATOM     14  C   UNL     1      47.454  14.991  17.228  0.00  0.00    +0.219 A 
ATOM     17  O   UNL     1      47.519  11.500  17.853  0.00  0.00    -0.295 OA
ATOM     18  C   UNL     1      48.798  15.379  17.297  0.00  0.00    -0.241 A 
ATOM     19  C   UNL     1      49.199  16.779  17.090  0.00  0.00    +0.434 A 
ATOM     20  O   UNL     1      48.379  17.651  16.854  0.00  0.00    -0.420 OA
ENDROOT
BRANCH   5   4
ATOM      3  C   UNL     1      51.179  19.349  18.067  0.00  0.00    +0.098 A 
ATOM      4  C   UNL     1      51.138  18.462  16.989  0.00  0.00    -0.035 A 
ATOM     21  C   UNL     1      51.573  18.879  15.733  0.00  0.00    +0.031 A 
ATOM     22  C   UNL     1      52.032  20.169  15.554  0.00  0.00    +0.028 A 
ATOM     23  C   UNL     1      52.072  21.049  16.620  0.00  0.00    +0.010 A 
ATOM     24  C   UNL     1      51.648  20.643  17.877  0.00  0.00    +0.089 A 
BRANCH   3   2
ATOM      1  C   UNL     1      51.769  18.525  20.218  0.00  0.00    +0.220 C 
ATOM      2  O   UNL     1      50.762  18.949  19.298  0.00  0.00    -0.317 OA
ENDBRANCH   3   2
BRANCH  24  25
ATOM     25  O   UNL     1      51.690  21.512  18.921  0.00  0.00    -0.484 OA
ATOM     26  H   UNL     1      51.230  22.348  18.757  0.00  0.00    +0.387 HD
ENDBRANCH  24  25
ENDBRANCH   5   4
BRANCH  14  15
ATOM     15  O   UNL     1      46.489  15.910  16.967  0.00  0.00    -0.462 OA
ATOM     16  H   UNL     1      46.222  16.430  17.738  0.00  0.00    +0.402 HD
ENDBRANCH  14  15
TORSDOF 4
ENDMDL
