MODEL 1
REMARK VINA RESULT:      -7.6      0.000      0.000
REMARK  Name = ZINC95486204
REMARK  8 active torsions:
REMARK  status: ('A' for Active; 'I' for Inactive)
REMARK    1  A    between atoms: C1_1  and  C2_2
REMARK    2  A    between atoms: C5_5  and  C13_15
REMARK    3  A    between atoms: C8_8  and  O2_14
REMARK    4  A    between atoms: C10_10  and  O1_12
REMARK    5  A    between atoms: O1_12  and  C12_13
REMARK    6  A    between atoms: C19_21  and  C23_27
REMARK    7  A    between atoms: C19_21  and  O3_28
REMARK    8  A    between atoms: C20_23  and  C22_26
REMARK                            x       y       z     vdW  Elec       q    Type
REMARK                         _______ _______ _______ _____ _____    ______ ____
ROOT
ATOM      1  C   UNL     1      46.968  21.833  21.649  0.00  0.00    +0.094 C 
ATOM      2  C   UNL     1      45.642  21.781  20.934  0.00  0.00    -0.032 A 
ATOM      3  C   UNL     1      44.966  20.599  20.862  0.00  0.00    -0.026 A 
ATOM      4  C   UNL     1      43.730  20.539  20.200  0.00  0.00    +0.017 A 
ATOM      5  C   UNL     1      43.008  19.326  20.110  0.00  0.00    -0.059 A 
ATOM     21  C   UNL     1      41.792  19.302  19.450  0.00  0.00    +0.060 A 
ATOM     22  C   UNL     1      41.273  20.455  18.874  0.00  0.00    -0.027 A 
ATOM     23  C   UNL     1      41.956  21.650  18.946  0.00  0.00    +0.148 A 
ATOM     26  C   UNL     1      43.196  21.711  19.612  0.00  0.00    -0.102 A 
ATOM     27  C   UNL     1      43.917  22.918  19.701  0.00  0.00    +0.159 A 
ATOM     30  C   UNL     1      45.124  22.939  20.364  0.00  0.00    -0.097 A 
ENDROOT
BRANCH   5   6
ATOM      6  C   UNL     1      43.549  18.089  20.719  0.00  0.00    -0.047 A 
ATOM      7  C   UNL     1      43.066  17.643  21.949  0.00  0.00    +0.031 A 
ATOM      8  C   UNL     1      43.574  16.490  22.505  0.00  0.00    +0.005 A 
ATOM      9  C   UNL     1      44.566  15.771  21.852  0.00  0.00    -0.068 A 
ATOM     10  C   UNL     1      45.051  16.208  20.638  0.00  0.00    -0.105 A 
ATOM     11  C   UNL     1      46.135  15.465  19.901  0.00  0.00    +0.336 C 
ATOM     14  C   UNL     1      47.466  16.196  20.087  0.00  0.00    +0.042 C 
ATOM     15  N   UNL     1      46.259  14.096  20.411  0.00  0.00    -0.692 NA
ATOM     16  H   UNL     1      45.464  13.536  20.140  0.00  0.00    +0.348 HD
ATOM     17  C   UNL     1      46.418  14.111  21.874  0.00  0.00    +0.173 C 
ATOM     18  C   UNL     1      46.822  12.718  22.361  0.00  0.00    +0.043 C 
ATOM     19  C   UNL     1      45.084  14.513  22.504  0.00  0.00    +0.048 C 
ATOM     20  C   UNL     1      44.540  17.361  20.065  0.00  0.00    +0.059 A 
BRANCH  11  12
ATOM     12  O   UNL     1      45.814  15.421  18.509  0.00  0.00    -0.553 OA
ATOM     13  H   UNL     1      44.999  15.889  18.279  0.00  0.00    +0.386 HD
ENDBRANCH  11  12
ENDBRANCH   5   6
BRANCH  23  24
ATOM     24  O   UNL     1      41.435  22.767  18.377  0.00  0.00    -0.481 OA
ATOM     25  H   UNL     1      40.888  23.294  18.975  0.00  0.00    +0.392 HD
ENDBRANCH  23  24
BRANCH  27  28
ATOM     28  O   UNL     1      43.422  24.053  19.143  0.00  0.00    -0.295 OA
ATOM     29  C   UNL     1      44.352  24.905  18.471  0.00  0.00    +0.240 C 
ENDBRANCH  27  28
TORSDOF 4
ENDMDL
MODEL 2
REMARK VINA RESULT:      -7.0      1.966      2.597
REMARK  Name = ZINC95486204
REMARK  8 active torsions:
REMARK  status: ('A' for Active; 'I' for Inactive)
REMARK    1  A    between atoms: C1_1  and  C2_2
REMARK    2  A    between atoms: C5_5  and  C13_15
REMARK    3  A    between atoms: C8_8  and  O2_14
REMARK    4  A    between atoms: C10_10  and  O1_12
REMARK    5  A    between atoms: O1_12  and  C12_13
REMARK    6  A    between atoms: C19_21  and  C23_27
REMARK    7  A    between atoms: C19_21  and  O3_28
REMARK    8  A    between atoms: C20_23  and  C22_26
REMARK                            x       y       z     vdW  Elec       q    Type
REMARK                         _______ _______ _______ _____ _____    ______ ____
ROOT
ATOM      1  C   UNL     1      48.728  20.631  21.784  0.00  0.00    +0.094 C 
ATOM      2  C   UNL     1      47.363  20.999  21.260  0.00  0.00    -0.032 A 
ATOM      3  C   UNL     1      46.583  20.038  20.690  0.00  0.00    -0.026 A 
ATOM      4  C   UNL     1      45.310  20.369  20.201  0.00  0.00    +0.017 A 
ATOM      5  C   UNL     1      44.479  19.390  19.605  0.00  0.00    -0.059 A 
ATOM     21  C   UNL     1      43.229  19.751  19.133  0.00  0.00    +0.060 A 
ATOM     22  C   UNL     1      42.781  21.062  19.237  0.00  0.00    -0.027 A 
ATOM     23  C   UNL     1      43.570  22.035  19.812  0.00  0.00    +0.148 A 
ATOM     26  C   UNL     1      44.848  21.702  20.304  0.00  0.00    -0.102 A 
ATOM     27  C   UNL     1      45.676  22.676  20.897  0.00  0.00    +0.159 A 
ATOM     30  C   UNL     1      46.917  22.312  21.371  0.00  0.00    -0.097 A 
ENDROOT
BRANCH   5   6
ATOM      6  C   UNL     1      44.943  17.989  19.488  0.00  0.00    -0.047 A 
ATOM      7  C   UNL     1      44.621  17.058  20.476  0.00  0.00    +0.031 A 
ATOM      8  C   UNL     1      45.056  15.756  20.356  0.00  0.00    +0.005 A 
ATOM      9  C   UNL     1      45.815  15.365  19.261  0.00  0.00    -0.068 A 
ATOM     10  C   UNL     1      46.141  16.281  18.283  0.00  0.00    -0.105 A 
ATOM     11  C   UNL     1      46.972  15.903  17.085  0.00  0.00    +0.336 C 
ATOM     14  C   UNL     1      48.402  16.410  17.281  0.00  0.00    +0.042 C 
ATOM     15  N   UNL     1      46.994  14.447  16.913  0.00  0.00    -0.692 NA
ATOM     16  H   UNL     1      46.097  14.106  16.602  0.00  0.00    +0.348 HD
ATOM     17  C   UNL     1      47.401  13.793  18.168  0.00  0.00    +0.173 C 
ATOM     18  C   UNL     1      47.689  12.313  17.905  0.00  0.00    +0.043 C 
ATOM     19  C   UNL     1      46.261  13.927  19.177  0.00  0.00    +0.048 C 
ATOM     20  C   UNL     1      45.701  17.591  18.389  0.00  0.00    +0.059 A 
BRANCH  11  12
ATOM     12  O   UNL     1      46.415  16.507  15.915  0.00  0.00    -0.553 OA
ATOM     13  H   UNL     1      45.690  16.003  15.520  0.00  0.00    +0.386 HD
ENDBRANCH  11  12
ENDBRANCH   5   6
BRANCH  23  24
ATOM     24  O   UNL     1      43.117  23.312  19.905  0.00  0.00    -0.481 OA
ATOM     25  H   UNL     1      43.193  23.693  20.790  0.00  0.00    +0.392 HD
ENDBRANCH  23  24
BRANCH  27  28
ATOM     28  O   UNL     1      45.252  23.961  21.005  0.00  0.00    -0.295 OA
ATOM     29  C   UNL     1      46.258  24.976  21.044  0.00  0.00    +0.240 C 
ENDBRANCH  27  28
TORSDOF 4
ENDMDL
MODEL 3
REMARK VINA RESULT:      -6.8      2.842      5.406
REMARK  Name = ZINC95486204
REMARK  8 active torsions:
REMARK  status: ('A' for Active; 'I' for Inactive)
REMARK    1  A    between atoms: C1_1  and  C2_2
REMARK    2  A    between atoms: C5_5  and  C13_15
REMARK    3  A    between atoms: C8_8  and  O2_14
REMARK    4  A    between atoms: C10_10  and  O1_12
REMARK    5  A    between atoms: O1_12  and  C12_13
REMARK    6  A    between atoms: C19_21  and  C23_27
REMARK    7  A    between atoms: C19_21  and  O3_28
REMARK    8  A    between atoms: C20_23  and  C22_26
REMARK                            x       y       z     vdW  Elec       q    Type
REMARK                         _______ _______ _______ _____ _____    ______ ____
ROOT
ATOM      1  C   UNL     1      43.973  17.379  21.007  0.00  0.00    +0.094 C 
ATOM      2  C   UNL     1      43.650  18.763  20.507  0.00  0.00    -0.032 A 
ATOM      3  C   UNL     1      44.599  19.739  20.575  0.00  0.00    -0.026 A 
ATOM      4  C   UNL     1      44.310  21.031  20.110  0.00  0.00    +0.017 A 
ATOM      5  C   UNL     1      45.277  22.062  20.169  0.00  0.00    -0.059 A 
ATOM     21  C   UNL     1      44.958  23.326  19.701  0.00  0.00    +0.060 A 
ATOM     22  C   UNL     1      43.700  23.592  19.177  0.00  0.00    -0.027 A 
ATOM     23  C   UNL     1      42.739  22.607  19.108  0.00  0.00    +0.148 A 
ATOM     26  C   UNL     1      43.030  21.309  19.574  0.00  0.00    -0.102 A 
ATOM     27  C   UNL     1      42.067  20.282  19.517  0.00  0.00    +0.159 A 
ATOM     30  C   UNL     1      42.391  19.025  19.977  0.00  0.00    -0.097 A 
ENDROOT
BRANCH   5   6
ATOM      6  C   UNL     1      46.622  21.792  20.725  0.00  0.00    -0.047 A 
ATOM      7  C   UNL     1      46.964  22.262  21.994  0.00  0.00    +0.031 A 
ATOM      8  C   UNL     1      48.218  22.002  22.503  0.00  0.00    +0.005 A 
ATOM      9  C   UNL     1      49.144  21.279  21.762  0.00  0.00    -0.068 A 
ATOM     10  C   UNL     1      48.814  20.816  20.506  0.00  0.00    -0.105 A 
ATOM     11  C   UNL     1      49.792  20.039  19.663  0.00  0.00    +0.336 C 
ATOM     14  C   UNL     1      50.370  20.956  18.584  0.00  0.00    +0.042 C 
ATOM     15  N   UNL     1      50.883  19.517  20.491  0.00  0.00    -0.692 NA
ATOM     16  H   UNL     1      50.558  18.773  21.091  0.00  0.00    +0.348 HD
ATOM     17  C   UNL     1      51.487  20.603  21.280  0.00  0.00    +0.173 C 
ATOM     18  C   UNL     1      52.787  20.110  21.920  0.00  0.00    +0.043 C 
ATOM     19  C   UNL     1      50.499  21.020  22.369  0.00  0.00    +0.048 C 
ATOM     20  C   UNL     1      47.553  21.063  19.988  0.00  0.00    +0.059 A 
BRANCH  11  12
ATOM     12  O   UNL     1      49.112  18.948  19.037  0.00  0.00    -0.553 OA
ATOM     13  H   UNL     1      48.177  18.880  19.274  0.00  0.00    +0.386 HD
ENDBRANCH  11  12
ENDBRANCH   5   6
BRANCH  23  24
ATOM     24  O   UNL     1      41.514  22.885  18.593  0.00  0.00    -0.481 OA
ATOM     25  H   UNL     1      41.209  23.785  18.769  0.00  0.00    +0.392 HD
ENDBRANCH  23  24
BRANCH  27  28
ATOM     28  O   UNL     1      40.833  20.528  19.006  0.00  0.00    -0.295 OA
ATOM     29  C   UNL     1      40.425  19.740  17.886  0.00  0.00    +0.240 C 
ENDBRANCH  27  28
TORSDOF 4
ENDMDL
MODEL 4
REMARK VINA RESULT:      -6.6      2.239      3.738
REMARK  Name = ZINC95486204
REMARK  8 active torsions:
REMARK  status: ('A' for Active; 'I' for Inactive)
REMARK    1  A    between atoms: C1_1  and  C2_2
REMARK    2  A    between atoms: C5_5  and  C13_15
REMARK    3  A    between atoms: C8_8  and  O2_14
REMARK    4  A    between atoms: C10_10  and  O1_12
REMARK    5  A    between atoms: O1_12  and  C12_13
REMARK    6  A    between atoms: C19_21  and  C23_27
REMARK    7  A    between atoms: C19_21  and  O3_28
REMARK    8  A    between atoms: C20_23  and  C22_26
REMARK                            x       y       z     vdW  Elec       q    Type
REMARK                         _______ _______ _______ _____ _____    ______ ____
ROOT
ATOM      1  C   UNL     1      41.614  19.988  18.300  0.00  0.00    +0.094 C 
ATOM      2  C   UNL     1      42.892  20.443  18.957  0.00  0.00    -0.032 A 
ATOM      3  C   UNL     1      43.877  19.535  19.209  0.00  0.00    -0.026 A 
ATOM      4  C   UNL     1      45.071  19.948  19.819  0.00  0.00    +0.017 A 
ATOM      5  C   UNL     1      46.109  19.026  20.091  0.00  0.00    -0.059 A 
ATOM     21  C   UNL     1      47.274  19.467  20.694  0.00  0.00    +0.060 A 
ATOM     22  C   UNL     1      47.435  20.805  21.035  0.00  0.00    -0.027 A 
ATOM     23  C   UNL     1      46.440  21.724  20.782  0.00  0.00    +0.148 A 
ATOM     26  C   UNL     1      45.241  21.309  20.169  0.00  0.00    -0.102 A 
ATOM     27  C   UNL     1      44.206  22.226  19.898  0.00  0.00    +0.159 A 
ATOM     30  C   UNL     1      43.051  21.784  19.292  0.00  0.00    -0.097 A 
ENDROOT
BRANCH   5   6
ATOM      6  C   UNL     1      45.951  17.598  19.732  0.00  0.00    -0.047 A 
ATOM      7  C   UNL     1      45.310  16.721  20.608  0.00  0.00    +0.031 A 
ATOM      8  C   UNL     1      45.165  15.395  20.262  0.00  0.00    +0.005 A 
ATOM      9  C   UNL     1      45.657  14.925  19.052  0.00  0.00    -0.068 A 
ATOM     10  C   UNL     1      46.296  15.785  18.184  0.00  0.00    -0.105 A 
ATOM     11  C   UNL     1      46.856  15.314  16.866  0.00  0.00    +0.336 C 
ATOM     14  C   UNL     1      48.373  15.165  16.986  0.00  0.00    +0.042 C 
ATOM     15  N   UNL     1      46.270  14.023  16.491  0.00  0.00    -0.692 NA
ATOM     16  H   UNL     1      45.302  14.128  16.228  0.00  0.00    +0.348 HD
ATOM     17  C   UNL     1      46.416  13.059  17.594  0.00  0.00    +0.173 C 
ATOM     18  C   UNL     1      46.060  11.656  17.099  0.00  0.00    +0.043 C 
ATOM     19  C   UNL     1      45.469  13.466  18.723  0.00  0.00    +0.048 C 
ATOM     20  C   UNL     1      46.438  17.122  18.517  0.00  0.00    +0.059 A 
BRANCH  11  12
ATOM     12  O   UNL     1      46.556  16.279  15.856  0.00  0.00    -0.553 OA
ATOM     13  H   UNL     1      46.162  15.902  15.057  0.00  0.00    +0.386 HD
ENDBRANCH  11  12
ENDBRANCH   5   6
BRANCH  23  24
ATOM     24  O   UNL     1      46.613  23.026  21.124  0.00  0.00    -0.481 OA
ATOM     25  H   UNL     1      45.800  23.474  21.390  0.00  0.00    +0.392 HD
ENDBRANCH  23  24
BRANCH  27  28
ATOM     28  O   UNL     1      44.349  23.536  20.226  0.00  0.00    -0.295 OA
ATOM     29  C   UNL     1      44.380  24.475  19.150  0.00  0.00    +0.240 C 
ENDBRANCH  27  28
TORSDOF 4
ENDMDL
MODEL 5
REMARK VINA RESULT:      -6.0      3.960      6.982
REMARK  Name = ZINC95486204
REMARK  8 active torsions:
REMARK  status: ('A' for Active; 'I' for Inactive)
REMARK    1  A    between atoms: C1_1  and  C2_2
REMARK    2  A    between atoms: C5_5  and  C13_15
REMARK    3  A    between atoms: C8_8  and  O2_14
REMARK    4  A    between atoms: C10_10  and  O1_12
REMARK    5  A    between atoms: O1_12  and  C12_13
REMARK    6  A    between atoms: C19_21  and  C23_27
REMARK    7  A    between atoms: C19_21  and  O3_28
REMARK    8  A    between atoms: C20_23  and  C22_26
REMARK                            x       y       z     vdW  Elec       q    Type
REMARK                         _______ _______ _______ _____ _____    ______ ____
ROOT
ATOM      1  C   UNL     1      48.107  16.142  16.882  0.00  0.00    +0.094 C 
ATOM      2  C   UNL     1      48.866  17.279  17.516  0.00  0.00    -0.032 A 
ATOM      3  C   UNL     1      48.272  18.019  18.494  0.00  0.00    -0.026 A 
ATOM      4  C   UNL     1      48.970  19.080  19.092  0.00  0.00    +0.017 A 
ATOM      5  C   UNL     1      48.376  19.863  20.110  0.00  0.00    -0.059 A 
ATOM     21  C   UNL     1      49.094  20.902  20.678  0.00  0.00    +0.060 A 
ATOM     22  C   UNL     1      50.388  21.183  20.260  0.00  0.00    -0.027 A 
ATOM     23  C   UNL     1      50.990  20.437  19.270  0.00  0.00    +0.148 A 
ATOM     26  C   UNL     1      50.289  19.371  18.671  0.00  0.00    -0.102 A 
ATOM     27  C   UNL     1      50.879  18.591  17.656  0.00  0.00    +0.159 A 
ATOM     30  C   UNL     1      50.164  17.554  17.098  0.00  0.00    -0.097 A 
ENDROOT
BRANCH   5   6
ATOM      6  C   UNL     1      46.997  19.574  20.565  0.00  0.00    -0.047 A 
ATOM      7  C   UNL     1      46.781  18.747  21.667  0.00  0.00    +0.031 A 
ATOM      8  C   UNL     1      45.494  18.487  22.084  0.00  0.00    +0.005 A 
ATOM      9  C   UNL     1      44.411  19.039  21.413  0.00  0.00    -0.068 A 
ATOM     10  C   UNL     1      44.617  19.854  20.320  0.00  0.00    -0.105 A 
ATOM     11  C   UNL     1      43.471  20.465  19.556  0.00  0.00    +0.336 C 
ATOM     14  C   UNL     1      43.257  19.685  18.258  0.00  0.00    +0.042 C 
ATOM     15  N   UNL     1      42.242  20.424  20.354  0.00  0.00    -0.692 NA
ATOM     16  H   UNL     1      42.288  21.075  21.124  0.00  0.00    +0.348 HD
ATOM     17  C   UNL     1      41.993  19.056  20.835  0.00  0.00    +0.173 C 
ATOM     18  C   UNL     1      40.582  18.966  21.421  0.00  0.00    +0.043 C 
ATOM     19  C   UNL     1      43.024  18.725  21.914  0.00  0.00    +0.048 C 
ATOM     20  C   UNL     1      45.908  20.130  19.898  0.00  0.00    +0.059 A 
BRANCH  11  12
ATOM     12  O   UNL     1      43.784  21.824  19.242  0.00  0.00    -0.553 OA
ATOM     13  H   UNL     1      44.542  21.926  18.650  0.00  0.00    +0.386 HD
ENDBRANCH  11  12
ENDBRANCH   5   6
BRANCH  23  24
ATOM     24  O   UNL     1      52.256  20.726  18.873  0.00  0.00    -0.481 OA
ATOM     25  H   UNL     1      52.939  20.228  19.341  0.00  0.00    +0.392 HD
ENDBRANCH  23  24
BRANCH  27  28
ATOM     28  O   UNL     1      52.143  18.854  17.238  0.00  0.00    -0.295 OA
ATOM     29  C   UNL     1      52.307  19.247  15.874  0.00  0.00    +0.240 C 
ENDBRANCH  27  28
TORSDOF 4
ENDMDL
MODEL 6
REMARK VINA RESULT:      -5.9      4.062      7.826
REMARK  Name = ZINC95486204
REMARK  8 active torsions:
REMARK  status: ('A' for Active; 'I' for Inactive)
REMARK    1  A    between atoms: C1_1  and  C2_2
REMARK    2  A    between atoms: C5_5  and  C13_15
REMARK    3  A    between atoms: C8_8  and  O2_14
REMARK    4  A    between atoms: C10_10  and  O1_12
REMARK    5  A    between atoms: O1_12  and  C12_13
REMARK    6  A    between atoms: C19_21  and  C23_27
REMARK    7  A    between atoms: C19_21  and  O3_28
REMARK    8  A    between atoms: C20_23  and  C22_26
REMARK                            x       y       z     vdW  Elec       q    Type
REMARK                         _______ _______ _______ _____ _____    ______ ____
ROOT
ATOM      1  C   UNL     1      48.131  16.403  22.505  0.00  0.00    +0.094 C 
ATOM      2  C   UNL     1      48.983  17.377  21.734  0.00  0.00    -0.032 A 
ATOM      3  C   UNL     1      48.387  18.264  20.887  0.00  0.00    -0.026 A 
ATOM      4  C   UNL     1      49.171  19.177  20.165  0.00  0.00    +0.017 A 
ATOM      5  C   UNL     1      48.578  20.108  19.280  0.00  0.00    -0.059 A 
ATOM     21  C   UNL     1      49.381  20.995  18.583  0.00  0.00    +0.060 A 
ATOM     22  C   UNL     1      50.761  20.979  18.742  0.00  0.00    -0.027 A 
ATOM     23  C   UNL     1      51.365  20.083  19.597  0.00  0.00    +0.148 A 
ATOM     26  C   UNL     1      50.578  19.167  20.323  0.00  0.00    -0.102 A 
ATOM     27  C   UNL     1      51.167  18.238  21.204  0.00  0.00    +0.159 A 
ATOM     30  C   UNL     1      50.364  17.363  21.901  0.00  0.00    -0.097 A 
ENDROOT
BRANCH   5   6
ATOM      6  C   UNL     1      47.109  20.135  19.100  0.00  0.00    -0.047 A 
ATOM      7  C   UNL     1      46.468  19.112  18.401  0.00  0.00    +0.031 A 
ATOM      8  C   UNL     1      45.100  19.146  18.243  0.00  0.00    +0.005 A 
ATOM      9  C   UNL     1      44.355  20.192  18.771  0.00  0.00    -0.068 A 
ATOM     10  C   UNL     1      44.982  21.209  19.459  0.00  0.00    -0.105 A 
ATOM     11  C   UNL     1      44.214  22.369  20.038  0.00  0.00    +0.336 C 
ATOM     14  C   UNL     1      44.394  23.593  19.139  0.00  0.00    +0.042 C 
ATOM     15  N   UNL     1      42.788  22.044  20.135  0.00  0.00    -0.692 NA
ATOM     16  H   UNL     1      42.620  21.361  20.859  0.00  0.00    +0.348 HD
ATOM     17  C   UNL     1      42.285  21.569  18.835  0.00  0.00    +0.173 C 
ATOM     18  C   UNL     1      40.757  21.500  18.870  0.00  0.00    +0.043 C 
ATOM     19  C   UNL     1      42.860  20.177  18.572  0.00  0.00    +0.048 C 
ATOM     20  C   UNL     1      46.357  21.180  19.633  0.00  0.00    +0.059 A 
BRANCH  11  12
ATOM     12  O   UNL     1      44.719  22.665  21.342  0.00  0.00    -0.553 OA
ATOM     13  H   UNL     1      45.668  22.850  21.363  0.00  0.00    +0.386 HD
ENDBRANCH  11  12
ENDBRANCH   5   6
BRANCH  23  24
ATOM     24  O   UNL     1      52.715  20.081  19.740  0.00  0.00    -0.481 OA
ATOM     25  H   UNL     1      53.030  20.580  20.506  0.00  0.00    +0.392 HD
ENDBRANCH  23  24
BRANCH  27  28
ATOM     28  O   UNL     1      52.514  18.212  21.370  0.00  0.00    -0.295 OA
ATOM     29  C   UNL     1      53.149  16.933  21.326  0.00  0.00    +0.240 C 
ENDBRANCH  27  28
TORSDOF 4
ENDMDL
MODEL 7
REMARK VINA RESULT:      -5.9      2.816      4.033
REMARK  Name = ZINC95486204
REMARK  8 active torsions:
REMARK  status: ('A' for Active; 'I' for Inactive)
REMARK    1  A    between atoms: C1_1  and  C2_2
REMARK    2  A    between atoms: C5_5  and  C13_15
REMARK    3  A    between atoms: C8_8  and  O2_14
REMARK    4  A    between atoms: C10_10  and  O1_12
REMARK    5  A    between atoms: O1_12  and  C12_13
REMARK    6  A    between atoms: C19_21  and  C23_27
REMARK    7  A    between atoms: C19_21  and  O3_28
REMARK    8  A    between atoms: C20_23  and  C22_26
REMARK                            x       y       z     vdW  Elec       q    Type
REMARK                         _______ _______ _______ _____ _____    ______ ____
ROOT
ATOM      1  C   UNL     1      49.571  20.598  19.066  0.00  0.00    +0.094 C 
ATOM      2  C   UNL     1      48.183  20.511  19.647  0.00  0.00    -0.032 A 
ATOM      3  C   UNL     1      47.404  19.431  19.360  0.00  0.00    -0.026 A 
ATOM      4  C   UNL     1      46.110  19.338  19.896  0.00  0.00    +0.017 A 
ATOM      5  C   UNL     1      45.280  18.227  19.614  0.00  0.00    -0.059 A 
ATOM     21  C   UNL     1      44.010  18.168  20.160  0.00  0.00    +0.060 A 
ATOM     22  C   UNL     1      43.540  19.187  20.980  0.00  0.00    -0.027 A 
ATOM     23  C   UNL     1      44.327  20.281  21.270  0.00  0.00    +0.148 A 
ATOM     26  C   UNL     1      45.626  20.373  20.732  0.00  0.00    -0.102 A 
ATOM     27  C   UNL     1      46.453  21.479  21.011  0.00  0.00    +0.159 A 
ATOM     30  C   UNL     1      47.719  21.531  20.472  0.00  0.00    -0.097 A 
ENDROOT
BRANCH   5   6
ATOM      6  C   UNL     1      45.768  17.134  18.743  0.00  0.00    -0.047 A 
ATOM      7  C   UNL     1      46.221  17.414  17.453  0.00  0.00    +0.031 A 
ATOM      8  C   UNL     1      46.675  16.390  16.652  0.00  0.00    +0.005 A 
ATOM      9  C   UNL     1      46.682  15.081  17.117  0.00  0.00    -0.068 A 
ATOM     10  C   UNL     1      46.231  14.797  18.388  0.00  0.00    -0.105 A 
ATOM     11  C   UNL     1      46.209  13.390  18.928  0.00  0.00    +0.336 C 
ATOM     14  C   UNL     1      44.778  12.853  18.881  0.00  0.00    +0.042 C 
ATOM     15  N   UNL     1      47.079  12.520  18.131  0.00  0.00    -0.692 NA
ATOM     16  H   UNL     1      48.052  12.739  18.288  0.00  0.00    +0.348 HD
ATOM     17  C   UNL     1      46.738  12.630  16.703  0.00  0.00    +0.173 C 
ATOM     18  C   UNL     1      47.451  11.526  15.919  0.00  0.00    +0.043 C 
ATOM     19  C   UNL     1      47.194  13.999  16.199  0.00  0.00    +0.048 C 
ATOM     20  C   UNL     1      45.781  15.821  19.206  0.00  0.00    +0.059 A 
BRANCH  11  12
ATOM     12  O   UNL     1      46.665  13.398  20.283  0.00  0.00    -0.553 OA
ATOM     13  H   UNL     1      47.256  14.134  20.494  0.00  0.00    +0.386 HD
ENDBRANCH  11  12
ENDBRANCH   5   6
BRANCH  23  24
ATOM     24  O   UNL     1      43.852  21.268  22.072  0.00  0.00    -0.481 OA
ATOM     25  H   UNL     1      44.413  21.458  22.836  0.00  0.00    +0.392 HD
ENDBRANCH  23  24
BRANCH  27  28
ATOM     28  O   UNL     1      46.008  22.482  21.810  0.00  0.00    -0.295 OA
ATOM     29  C   UNL     1      46.017  23.802  21.262  0.00  0.00    +0.240 C 
ENDBRANCH  27  28
TORSDOF 4
ENDMDL
MODEL 8
REMARK VINA RESULT:      -5.8      3.422      5.423
REMARK  Name = ZINC95486204
REMARK  8 active torsions:
REMARK  status: ('A' for Active; 'I' for Inactive)
REMARK    1  A    between atoms: C1_1  and  C2_2
REMARK    2  A    between atoms: C5_5  and  C13_15
REMARK    3  A    between atoms: C8_8  and  O2_14
REMARK    4  A    between atoms: C10_10  and  O1_12
REMARK    5  A    between atoms: O1_12  and  C12_13
REMARK    6  A    between atoms: C19_21  and  C23_27
REMARK    7  A    between atoms: C19_21  and  O3_28
REMARK    8  A    between atoms: C20_23  and  C22_26
REMARK                            x       y       z     vdW  Elec       q    Type
REMARK                         _______ _______ _______ _____ _____    ______ ____
ROOT
ATOM      1  C   UNL     1      44.853  15.895  21.930  0.00  0.00    +0.094 C 
ATOM      2  C   UNL     1      44.742  17.222  21.224  0.00  0.00    -0.032 A 
ATOM      3  C   UNL     1      45.870  17.833  20.764  0.00  0.00    -0.026 A 
ATOM      4  C   UNL     1      45.778  19.068  20.104  0.00  0.00    +0.017 A 
ATOM      5  C   UNL     1      46.933  19.723  19.615  0.00  0.00    -0.059 A 
ATOM     21  C   UNL     1      46.806  20.940  18.969  0.00  0.00    +0.060 A 
ATOM     22  C   UNL     1      45.558  21.526  18.795  0.00  0.00    -0.027 A 
ATOM     23  C   UNL     1      44.417  20.910  19.261  0.00  0.00    +0.148 A 
ATOM     26  C   UNL     1      44.509  19.669  19.923  0.00  0.00    -0.102 A 
ATOM     27  C   UNL     1      43.360  19.016  20.411  0.00  0.00    +0.159 A 
ATOM     30  C   UNL     1      43.490  17.802  21.047  0.00  0.00    -0.097 A 
ENDROOT
BRANCH   5   6
ATOM      6  C   UNL     1      48.269  19.110  19.793  0.00  0.00    -0.047 A 
ATOM      7  C   UNL     1      48.960  19.271  20.994  0.00  0.00    +0.031 A 
ATOM      8  C   UNL     1      50.202  18.694  21.150  0.00  0.00    +0.005 A 
ATOM      9  C   UNL     1      50.771  17.957  20.120  0.00  0.00    -0.068 A 
ATOM     10  C   UNL     1      50.095  17.798  18.929  0.00  0.00    -0.105 A 
ATOM     11  C   UNL     1      50.681  17.017  17.781  0.00  0.00    +0.336 C 
ATOM     14  C   UNL     1      51.215  17.990  16.728  0.00  0.00    +0.042 C 
ATOM     15  N   UNL     1      51.775  16.160  18.247  0.00  0.00    -0.692 NA
ATOM     16  H   UNL     1      51.422  15.394  18.801  0.00  0.00    +0.348 HD
ATOM     17  C   UNL     1      52.754  16.953  19.006  0.00  0.00    +0.173 C 
ATOM     18  C   UNL     1      54.015  16.120  19.246  0.00  0.00    +0.043 C 
ATOM     19  C   UNL     1      52.130  17.344  20.346  0.00  0.00    +0.048 C 
ATOM     20  C   UNL     1      48.842  18.366  18.764  0.00  0.00    +0.059 A 
BRANCH  11  12
ATOM     12  O   UNL     1      49.661  16.204  17.195  0.00  0.00    -0.553 OA
ATOM     13  H   UNL     1      48.854  16.144  17.725  0.00  0.00    +0.386 HD
ENDBRANCH  11  12
ENDBRANCH   5   6
BRANCH  23  24
ATOM     24  O   UNL     1      43.205  21.497  19.084  0.00  0.00    -0.481 OA
ATOM     25  H   UNL     1      43.160  22.080  18.315  0.00  0.00    +0.392 HD
ENDBRANCH  23  24
BRANCH  27  28
ATOM     28  O   UNL     1      42.134  19.577  20.248  0.00  0.00    -0.295 OA
ATOM     29  C   UNL     1      41.051  18.990  20.973  0.00  0.00    +0.240 C 
ENDBRANCH  27  28
TORSDOF 4
ENDMDL
MODEL 9
REMARK VINA RESULT:      -5.6      2.657      7.559
REMARK  Name = ZINC95486204
REMARK  8 active torsions:
REMARK  status: ('A' for Active; 'I' for Inactive)
REMARK    1  A    between atoms: C1_1  and  C2_2
REMARK    2  A    between atoms: C5_5  and  C13_15
REMARK    3  A    between atoms: C8_8  and  O2_14
REMARK    4  A    between atoms: C10_10  and  O1_12
REMARK    5  A    between atoms: O1_12  and  C12_13
REMARK    6  A    between atoms: C19_21  and  C23_27
REMARK    7  A    between atoms: C19_21  and  O3_28
REMARK    8  A    between atoms: C20_23  and  C22_26
REMARK                            x       y       z     vdW  Elec       q    Type
REMARK                         _______ _______ _______ _____ _____    ______ ____
ROOT
ATOM      1  C   UNL     1      46.839  16.558  16.669  0.00  0.00    +0.094 C 
ATOM      2  C   UNL     1      46.346  16.027  17.991  0.00  0.00    -0.032 A 
ATOM      3  C   UNL     1      45.638  16.845  18.819  0.00  0.00    -0.026 A 
ATOM      4  C   UNL     1      45.173  16.361  20.051  0.00  0.00    +0.017 A 
ATOM      5  C   UNL     1      44.435  17.189  20.930  0.00  0.00    -0.059 A 
ATOM     21  C   UNL     1      43.991  16.679  22.138  0.00  0.00    +0.060 A 
ATOM     22  C   UNL     1      44.263  15.364  22.497  0.00  0.00    -0.027 A 
ATOM     23  C   UNL     1      44.980  14.536  21.661  0.00  0.00    +0.148 A 
ATOM     26  C   UNL     1      45.446  15.023  20.423  0.00  0.00    -0.102 A 
ATOM     27  C   UNL     1      46.182  14.199  19.547  0.00  0.00    +0.159 A 
ATOM     30  C   UNL     1      46.615  14.709  18.343  0.00  0.00    -0.097 A 
ENDROOT
BRANCH   5   6
ATOM      6  C   UNL     1      44.138  18.591  20.561  0.00  0.00    -0.047 A 
ATOM      7  C   UNL     1      42.868  18.943  20.103  0.00  0.00    +0.031 A 
ATOM      8  C   UNL     1      42.602  20.251  19.764  0.00  0.00    +0.005 A 
ATOM      9  C   UNL     1      43.589  21.222  19.872  0.00  0.00    -0.068 A 
ATOM     10  C   UNL     1      44.848  20.881  20.319  0.00  0.00    -0.105 A 
ATOM     11  C   UNL     1      45.952  21.899  20.440  0.00  0.00    +0.336 C 
ATOM     14  C   UNL     1      46.915  21.742  19.261  0.00  0.00    +0.042 C 
ATOM     15  N   UNL     1      45.401  23.258  20.437  0.00  0.00    -0.692 NA
ATOM     16  H   UNL     1      44.908  23.450  21.297  0.00  0.00    +0.348 HD
ATOM     17  C   UNL     1      44.522  23.447  19.272  0.00  0.00    +0.173 C 
ATOM     18  C   UNL     1      44.178  24.931  19.124  0.00  0.00    +0.043 C 
ATOM     19  C   UNL     1      43.243  22.639  19.492  0.00  0.00    +0.048 C 
ATOM     20  C   UNL     1      45.124  19.569  20.672  0.00  0.00    +0.059 A 
BRANCH  11  12
ATOM     12  O   UNL     1      46.663  21.682  21.660  0.00  0.00    -0.553 OA
ATOM     13  H   UNL     1      46.997  20.780  21.765  0.00  0.00    +0.386 HD
ENDBRANCH  11  12
ENDBRANCH   5   6
BRANCH  23  24
ATOM     24  O   UNL     1      45.237  13.255  22.028  0.00  0.00    -0.481 OA
ATOM     25  H   UNL     1      44.966  13.042  22.931  0.00  0.00    +0.392 HD
ENDBRANCH  23  24
BRANCH  27  28
ATOM     28  O   UNL     1      46.454  12.913  19.885  0.00  0.00    -0.295 OA
ATOM     29  C   UNL     1      47.670  12.354  19.384  0.00  0.00    +0.240 C 
ENDBRANCH  27  28
TORSDOF 4
ENDMDL
