MODEL 1
REMARK VINA RESULT:      -6.2      0.000      0.000
REMARK  Name = ZINC95486013
REMARK  6 active torsions:
REMARK  status: ('A' for Active; 'I' for Inactive)
REMARK    1  A    between atoms: C1_1  and  C2_2
REMARK    2  A    between atoms: C4_4  and  O5_25
REMARK    3  A    between atoms: C5_5  and  C9_10
REMARK    4  A    between atoms: C7_7  and  O1_8
REMARK    5  A    between atoms: O1_8  and  C8_9
REMARK    6  A    between atoms: O5_25  and  C20_26
REMARK                            x       y       z     vdW  Elec       q    Type
REMARK                         _______ _______ _______ _____ _____    ______ ____
ROOT
ATOM      8  C   UNL     1      45.535  19.985  20.506  0.00  0.00    +0.014 C 
ATOM      9  C   UNL     1      46.102  20.273  21.904  0.00  0.00    +0.286 C 
ATOM     10  O   UNL     1      47.428  19.750  21.994  0.00  0.00    -0.300 OA
ATOM     11  C   UNL     1      48.332  20.101  21.048  0.00  0.00    +0.193 A 
ATOM     12  C   UNL     1      49.683  20.018  21.329  0.00  0.00    -0.010 A 
ATOM     13  C   UNL     1      50.622  20.369  20.366  0.00  0.00    +0.118 A 
ATOM     14  C   UNL     1      50.195  20.809  19.098  0.00  0.00    -0.173 A 
ATOM     15  C   UNL     1      48.840  20.900  18.806  0.00  0.00    +0.177 A 
ATOM     16  C   UNL     1      51.426  21.085  18.344  0.00  0.00    -0.030 A 
ATOM     17  C   UNL     1      52.440  20.806  19.172  0.00  0.00    +0.218 A 
ATOM     18  O   UNL     1      51.970  20.386  20.359  0.00  0.00    -0.189 OA
ATOM     19  C   UNL     1      47.908  20.548  19.780  0.00  0.00    -0.256 A 
ATOM     20  C   UNL     1      46.463  20.644  19.501  0.00  0.00    +0.414 C 
ATOM     21  O   UNL     1      46.038  21.218  18.520  0.00  0.00    -0.432 OA
ENDROOT
BRANCH   8   7
ATOM      1  C   UNL     1      45.359  14.275  19.591  0.00  0.00    +0.105 C 
ATOM      2  C   UNL     1      45.404  15.763  19.830  0.00  0.00    -0.068 A 
ATOM      3  C   UNL     1      44.650  16.322  20.843  0.00  0.00    -0.033 A 
ATOM      4  C   UNL     1      44.692  17.691  21.064  0.00  0.00    +0.113 A 
ATOM      7  C   UNL     1      45.491  18.498  20.267  0.00  0.00    -0.084 A 
ATOM     22  C   UNL     1      46.245  17.938  19.253  0.00  0.00    -0.009 A 
ATOM     23  C   UNL     1      46.207  16.569  19.037  0.00  0.00    +0.093 A 
BRANCH   4   5
ATOM      5  O   UNL     1      43.949  18.242  22.060  0.00  0.00    -0.315 OA
ATOM      6  C   UNL     1      42.532  18.253  21.884  0.00  0.00    +0.242 C 
ENDBRANCH   4   5
BRANCH  23  24
ATOM     24  O   UNL     1      46.953  16.017  18.043  0.00  0.00    -0.311 OA
ATOM     25  C   UNL     1      46.629  16.393  16.702  0.00  0.00    +0.236 C 
ENDBRANCH  23  24
ENDBRANCH   8   7
TORSDOF 3
ENDMDL
MODEL 2
REMARK VINA RESULT:      -6.0      2.707      5.650
REMARK  Name = ZINC95486013
REMARK  6 active torsions:
REMARK  status: ('A' for Active; 'I' for Inactive)
REMARK    1  A    between atoms: C1_1  and  C2_2
REMARK    2  A    between atoms: C4_4  and  O5_25
REMARK    3  A    between atoms: C5_5  and  C9_10
REMARK    4  A    between atoms: C7_7  and  O1_8
REMARK    5  A    between atoms: O1_8  and  C8_9
REMARK    6  A    between atoms: O5_25  and  C20_26
REMARK                            x       y       z     vdW  Elec       q    Type
REMARK                         _______ _______ _______ _____ _____    ______ ____
ROOT
ATOM      8  C   UNL     1      45.552  20.860  20.527  0.00  0.00    +0.014 C 
ATOM      9  C   UNL     1      45.539  19.874  21.705  0.00  0.00    +0.286 C 
ATOM     10  O   UNL     1      44.988  18.629  21.276  0.00  0.00    -0.300 OA
ATOM     11  C   UNL     1      45.511  18.030  20.178  0.00  0.00    +0.193 A 
ATOM     12  C   UNL     1      45.352  16.668  20.001  0.00  0.00    -0.010 A 
ATOM     13  C   UNL     1      45.877  16.042  18.877  0.00  0.00    +0.118 A 
ATOM     14  C   UNL     1      46.574  16.797  17.914  0.00  0.00    -0.173 A 
ATOM     15  C   UNL     1      46.743  18.165  18.084  0.00  0.00    +0.177 A 
ATOM     16  C   UNL     1      46.979  15.835  16.880  0.00  0.00    -0.030 A 
ATOM     17  C   UNL     1      46.521  14.643  17.280  0.00  0.00    +0.218 A 
ATOM     18  O   UNL     1      45.874  14.762  18.453  0.00  0.00    -0.189 OA
ATOM     19  C   UNL     1      46.214  18.782  19.216  0.00  0.00    -0.256 A 
ATOM     20  C   UNL     1      46.388  20.232  19.426  0.00  0.00    +0.414 C 
ATOM     21  O   UNL     1      47.157  20.888  18.756  0.00  0.00    -0.432 OA
ENDROOT
BRANCH   8   7
ATOM      1  C   UNL     1      40.157  21.754  18.639  0.00  0.00    +0.105 C 
ATOM      2  C   UNL     1      41.563  21.522  19.130  0.00  0.00    -0.068 A 
ATOM      3  C   UNL     1      42.493  22.540  19.066  0.00  0.00    -0.033 A 
ATOM      4  C   UNL     1      43.787  22.327  19.518  0.00  0.00    +0.113 A 
ATOM      7  C   UNL     1      44.146  21.091  20.036  0.00  0.00    -0.084 A 
ATOM     22  C   UNL     1      43.215  20.072  20.101  0.00  0.00    -0.009 A 
ATOM     23  C   UNL     1      41.920  20.288  19.653  0.00  0.00    +0.093 A 
BRANCH   4   5
ATOM      5  O   UNL     1      44.703  23.329  19.454  0.00  0.00    -0.315 OA
ATOM      6  C   UNL     1      44.320  24.515  18.756  0.00  0.00    +0.242 C 
ENDBRANCH   4   5
BRANCH  23  24
ATOM     24  O   UNL     1      41.002  19.287  19.721  0.00  0.00    -0.311 OA
ATOM     25  C   UNL     1      40.778  18.699  21.005  0.00  0.00    +0.236 C 
ENDBRANCH  23  24
ENDBRANCH   8   7
TORSDOF 3
ENDMDL
MODEL 3
REMARK VINA RESULT:      -5.9      2.448      5.813
REMARK  Name = ZINC95486013
REMARK  6 active torsions:
REMARK  status: ('A' for Active; 'I' for Inactive)
REMARK    1  A    between atoms: C1_1  and  C2_2
REMARK    2  A    between atoms: C4_4  and  O5_25
REMARK    3  A    between atoms: C5_5  and  C9_10
REMARK    4  A    between atoms: C7_7  and  O1_8
REMARK    5  A    between atoms: O1_8  and  C8_9
REMARK    6  A    between atoms: O5_25  and  C20_26
REMARK                            x       y       z     vdW  Elec       q    Type
REMARK                         _______ _______ _______ _____ _____    ______ ____
ROOT
ATOM      8  C   UNL     1      45.974  18.463  21.778  0.00  0.00    +0.014 C 
ATOM      9  C   UNL     1      46.032  19.884  22.358  0.00  0.00    +0.286 C 
ATOM     10  O   UNL     1      45.640  20.821  21.356  0.00  0.00    -0.300 OA
ATOM     11  C   UNL     1      44.461  20.634  20.714  0.00  0.00    +0.193 A 
ATOM     12  C   UNL     1      43.834  21.706  20.107  0.00  0.00    -0.010 A 
ATOM     13  C   UNL     1      42.629  21.526  19.440  0.00  0.00    +0.118 A 
ATOM     14  C   UNL     1      42.044  20.246  19.379  0.00  0.00    -0.173 A 
ATOM     15  C   UNL     1      42.664  19.163  19.988  0.00  0.00    +0.177 A 
ATOM     16  C   UNL     1      40.805  20.417  18.609  0.00  0.00    -0.030 A 
ATOM     17  C   UNL     1      40.743  21.715  18.286  0.00  0.00    +0.218 A 
ATOM     18  O   UNL     1      41.813  22.367  18.773  0.00  0.00    -0.189 OA
ATOM     19  C   UNL     1      43.871  19.355  20.657  0.00  0.00    -0.256 A 
ATOM     20  C   UNL     1      44.546  18.224  21.320  0.00  0.00    +0.414 C 
ATOM     21  O   UNL     1      43.991  17.158  21.491  0.00  0.00    -0.432 OA
ENDROOT
BRANCH   8   7
ATOM      1  C   UNL     1      49.594  18.022  17.287  0.00  0.00    +0.105 C 
ATOM      2  C   UNL     1      48.652  18.137  18.458  0.00  0.00    -0.068 A 
ATOM      3  C   UNL     1      49.145  18.428  19.715  0.00  0.00    -0.033 A 
ATOM      4  C   UNL     1      48.278  18.534  20.792  0.00  0.00    +0.113 A 
ATOM      7  C   UNL     1      46.915  18.348  20.607  0.00  0.00    -0.084 A 
ATOM     22  C   UNL     1      46.422  18.057  19.350  0.00  0.00    -0.009 A 
ATOM     23  C   UNL     1      47.289  17.956  18.272  0.00  0.00    +0.093 A 
BRANCH   4   5
ATOM      5  O   UNL     1      48.763  18.819  22.030  0.00  0.00    -0.315 OA
ATOM      6  C   UNL     1      49.857  19.735  22.103  0.00  0.00    +0.242 C 
ENDBRANCH   4   5
BRANCH  23  24
ATOM     24  O   UNL     1      46.804  17.676  17.033  0.00  0.00    -0.311 OA
ATOM     25  C   UNL     1      46.498  16.308  16.751  0.00  0.00    +0.236 C 
ENDBRANCH  23  24
ENDBRANCH   8   7
TORSDOF 3
ENDMDL
MODEL 4
REMARK VINA RESULT:      -5.9      2.001      3.528
REMARK  Name = ZINC95486013
REMARK  6 active torsions:
REMARK  status: ('A' for Active; 'I' for Inactive)
REMARK    1  A    between atoms: C1_1  and  C2_2
REMARK    2  A    between atoms: C4_4  and  O5_25
REMARK    3  A    between atoms: C5_5  and  C9_10
REMARK    4  A    between atoms: C7_7  and  O1_8
REMARK    5  A    between atoms: O1_8  and  C8_9
REMARK    6  A    between atoms: O5_25  and  C20_26
REMARK                            x       y       z     vdW  Elec       q    Type
REMARK                         _______ _______ _______ _____ _____    ______ ____
ROOT
ATOM      8  C   UNL     1      46.965  18.632  21.859  0.00  0.00    +0.014 C 
ATOM      9  C   UNL     1      47.449  17.276  21.324  0.00  0.00    +0.286 C 
ATOM     10  O   UNL     1      47.793  17.406  19.944  0.00  0.00    -0.300 OA
ATOM     11  C   UNL     1      48.658  18.383  19.577  0.00  0.00    +0.193 A 
ATOM     12  C   UNL     1      49.361  18.265  18.394  0.00  0.00    -0.010 A 
ATOM     13  C   UNL     1      50.246  19.262  18.002  0.00  0.00    +0.118 A 
ATOM     14  C   UNL     1      50.426  20.399  18.814  0.00  0.00    -0.173 A 
ATOM     15  C   UNL     1      49.726  20.527  20.007  0.00  0.00    +0.177 A 
ATOM     16  C   UNL     1      51.409  21.233  18.109  0.00  0.00    -0.030 A 
ATOM     17  C   UNL     1      51.727  20.569  16.991  0.00  0.00    +0.218 A 
ATOM     18  O   UNL     1      51.045  19.411  16.927  0.00  0.00    -0.189 OA
ATOM     19  C   UNL     1      48.844  19.519  20.391  0.00  0.00    -0.256 A 
ATOM     20  C   UNL     1      48.095  19.625  21.657  0.00  0.00    +0.414 C 
ATOM     21  O   UNL     1      48.368  20.459  22.494  0.00  0.00    -0.432 OA
ENDROOT
BRANCH   8   7
ATOM      1  C   UNL     1      42.283  20.343  18.921  0.00  0.00    +0.105 C 
ATOM      2  C   UNL     1      43.502  19.896  19.687  0.00  0.00    -0.068 A 
ATOM      3  C   UNL     1      43.487  18.695  20.368  0.00  0.00    -0.033 A 
ATOM      4  C   UNL     1      44.609  18.284  21.073  0.00  0.00    +0.113 A 
ATOM      7  C   UNL     1      45.746  19.079  21.092  0.00  0.00    -0.084 A 
ATOM     22  C   UNL     1      45.761  20.280  20.411  0.00  0.00    -0.009 A 
ATOM     23  C   UNL     1      44.640  20.688  19.702  0.00  0.00    +0.093 A 
BRANCH   4   5
ATOM      5  O   UNL     1      44.594  17.102  21.745  0.00  0.00    -0.315 OA
ATOM      6  C   UNL     1      43.411  16.788  22.481  0.00  0.00    +0.242 C 
ENDBRANCH   4   5
BRANCH  23  24
ATOM     24  O   UNL     1      44.656  21.868  19.026  0.00  0.00    -0.311 OA
ATOM     25  C   UNL     1      44.706  23.064  19.809  0.00  0.00    +0.236 C 
ENDBRANCH  23  24
ENDBRANCH   8   7
TORSDOF 3
ENDMDL
MODEL 5
REMARK VINA RESULT:      -5.7      2.059      5.958
REMARK  Name = ZINC95486013
REMARK  6 active torsions:
REMARK  status: ('A' for Active; 'I' for Inactive)
REMARK    1  A    between atoms: C1_1  and  C2_2
REMARK    2  A    between atoms: C4_4  and  O5_25
REMARK    3  A    between atoms: C5_5  and  C9_10
REMARK    4  A    between atoms: C7_7  and  O1_8
REMARK    5  A    between atoms: O1_8  and  C8_9
REMARK    6  A    between atoms: O5_25  and  C20_26
REMARK                            x       y       z     vdW  Elec       q    Type
REMARK                         _______ _______ _______ _____ _____    ______ ____
ROOT
ATOM      8  C   UNL     1      47.982  18.907  19.833  0.00  0.00    +0.014 C 
ATOM      9  C   UNL     1      47.621  20.138  18.988  0.00  0.00    +0.286 C 
ATOM     10  O   UNL     1      46.326  19.957  18.416  0.00  0.00    -0.300 OA
ATOM     11  C   UNL     1      45.292  19.638  19.232  0.00  0.00    +0.193 A 
ATOM     12  C   UNL     1      43.996  19.904  18.831  0.00  0.00    -0.010 A 
ATOM     13  C   UNL     1      42.927  19.576  19.655  0.00  0.00    +0.118 A 
ATOM     14  C   UNL     1      43.163  18.968  20.904  0.00  0.00    -0.173 A 
ATOM     15  C   UNL     1      44.461  18.698  21.318  0.00  0.00    +0.177 A 
ATOM     16  C   UNL     1      41.835  18.760  21.497  0.00  0.00    -0.030 A 
ATOM     17  C   UNL     1      40.952  19.234  20.609  0.00  0.00    +0.218 A 
ATOM     18  O   UNL     1      41.592  19.714  19.527  0.00  0.00    -0.189 OA
ATOM     19  C   UNL     1      45.526  19.034  20.485  0.00  0.00    -0.256 A 
ATOM     20  C   UNL     1      46.915  18.769  20.904  0.00  0.00    +0.414 C 
ATOM     21  O   UNL     1      47.191  18.456  22.043  0.00  0.00    -0.432 OA
ENDROOT
BRANCH   8   7
ATOM      1  C   UNL     1      48.061  14.184  16.493  0.00  0.00    +0.105 C 
ATOM      2  C   UNL     1      48.041  15.415  17.363  0.00  0.00    -0.068 A 
ATOM      3  C   UNL     1      49.044  16.358  17.247  0.00  0.00    -0.033 A 
ATOM      4  C   UNL     1      49.026  17.491  18.047  0.00  0.00    +0.113 A 
ATOM      7  C   UNL     1      48.001  17.677  18.963  0.00  0.00    -0.084 A 
ATOM     22  C   UNL     1      46.998  16.733  19.079  0.00  0.00    -0.009 A 
ATOM     23  C   UNL     1      47.014  15.603  18.275  0.00  0.00    +0.093 A 
BRANCH   4   5
ATOM      5  O   UNL     1      50.013  18.418  17.934  0.00  0.00    -0.315 OA
ATOM      6  C   UNL     1      50.817  18.370  16.754  0.00  0.00    +0.242 C 
ENDBRANCH   4   5
BRANCH  23  24
ATOM     24  O   UNL     1      46.024  14.677  18.385  0.00  0.00    -0.311 OA
ATOM     25  C   UNL     1      45.468  14.473  19.686  0.00  0.00    +0.236 C 
ENDBRANCH  23  24
ENDBRANCH   8   7
TORSDOF 3
ENDMDL
MODEL 6
REMARK VINA RESULT:      -5.6      2.290      3.046
REMARK  Name = ZINC95486013
REMARK  6 active torsions:
REMARK  status: ('A' for Active; 'I' for Inactive)
REMARK    1  A    between atoms: C1_1  and  C2_2
REMARK    2  A    between atoms: C4_4  and  O5_25
REMARK    3  A    between atoms: C5_5  and  C9_10
REMARK    4  A    between atoms: C7_7  and  O1_8
REMARK    5  A    between atoms: O1_8  and  C8_9
REMARK    6  A    between atoms: O5_25  and  C20_26
REMARK                            x       y       z     vdW  Elec       q    Type
REMARK                         _______ _______ _______ _____ _____    ______ ____
ROOT
ATOM      8  C   UNL     1      45.843  18.426  18.000  0.00  0.00    +0.014 C 
ATOM      9  C   UNL     1      46.380  19.778  18.492  0.00  0.00    +0.286 C 
ATOM     10  O   UNL     1      47.483  19.559  19.371  0.00  0.00    -0.300 OA
ATOM     11  C   UNL     1      48.510  18.782  18.946  0.00  0.00    +0.193 A 
ATOM     12  C   UNL     1      49.755  18.914  19.531  0.00  0.00    -0.010 A 
ATOM     13  C   UNL     1      50.814  18.119  19.110  0.00  0.00    +0.118 A 
ATOM     14  C   UNL     1      50.618  17.174  18.084  0.00  0.00    -0.173 A 
ATOM     15  C   UNL     1      49.372  17.035  17.488  0.00  0.00    +0.177 A 
ATOM     16  C   UNL     1      51.921  16.520  17.900  0.00  0.00    -0.030 A 
ATOM     17  C   UNL     1      52.753  17.092  18.779  0.00  0.00    +0.218 A 
ATOM     18  O   UNL     1      52.105  18.031  19.490  0.00  0.00    -0.189 OA
ATOM     19  C   UNL     1      48.318  17.839  17.916  0.00  0.00    -0.256 A 
ATOM     20  C   UNL     1      46.986  17.720  17.293  0.00  0.00    +0.414 C 
ATOM     21  O   UNL     1      46.812  17.091  16.270  0.00  0.00    -0.432 OA
ENDROOT
BRANCH   8   7
ATOM      1  C   UNL     1      44.049  15.268  22.504  0.00  0.00    +0.105 C 
ATOM      2  C   UNL     1      44.515  16.091  21.331  0.00  0.00    -0.068 A 
ATOM      3  C   UNL     1      44.096  17.400  21.195  0.00  0.00    -0.033 A 
ATOM      4  C   UNL     1      44.525  18.159  20.116  0.00  0.00    +0.113 A 
ATOM      7  C   UNL     1      45.377  17.602  19.173  0.00  0.00    -0.084 A 
ATOM     22  C   UNL     1      45.797  16.293  19.309  0.00  0.00    -0.009 A 
ATOM     23  C   UNL     1      45.371  15.537  20.391  0.00  0.00    +0.093 A 
BRANCH   4   5
ATOM      5  O   UNL     1      44.111  19.446  19.982  0.00  0.00    -0.315 OA
ATOM      6  C   UNL     1      42.707  19.665  19.836  0.00  0.00    +0.242 C 
ENDBRANCH   4   5
BRANCH  23  24
ATOM     24  O   UNL     1      45.789  14.250  20.528  0.00  0.00    -0.311 OA
ATOM     25  C   UNL     1      45.459  13.345  19.471  0.00  0.00    +0.236 C 
ENDBRANCH  23  24
ENDBRANCH   8   7
TORSDOF 3
ENDMDL
MODEL 7
REMARK VINA RESULT:      -5.6      2.405      6.245
REMARK  Name = ZINC95486013
REMARK  6 active torsions:
REMARK  status: ('A' for Active; 'I' for Inactive)
REMARK    1  A    between atoms: C1_1  and  C2_2
REMARK    2  A    between atoms: C4_4  and  O5_25
REMARK    3  A    between atoms: C5_5  and  C9_10
REMARK    4  A    between atoms: C7_7  and  O1_8
REMARK    5  A    between atoms: O1_8  and  C8_9
REMARK    6  A    between atoms: O5_25  and  C20_26
REMARK                            x       y       z     vdW  Elec       q    Type
REMARK                         _______ _______ _______ _____ _____    ______ ____
ROOT
ATOM      8  C   UNL     1      46.625  17.636  19.993  0.00  0.00    +0.014 C 
ATOM      9  C   UNL     1      45.490  17.644  18.959  0.00  0.00    +0.286 C 
ATOM     10  O   UNL     1      45.986  17.171  17.707  0.00  0.00    -0.300 OA
ATOM     11  C   UNL     1      46.635  15.981  17.671  0.00  0.00    +0.193 A 
ATOM     12  C   UNL     1      46.714  15.281  16.482  0.00  0.00    -0.010 A 
ATOM     13  C   UNL     1      47.381  14.063  16.429  0.00  0.00    +0.118 A 
ATOM     14  C   UNL     1      47.981  13.541  17.591  0.00  0.00    -0.173 A 
ATOM     15  C   UNL     1      47.906  14.235  18.792  0.00  0.00    +0.177 A 
ATOM     16  C   UNL     1      48.590  12.268  17.181  0.00  0.00    -0.030 A 
ATOM     17  C   UNL     1      48.322  12.131  15.876  0.00  0.00    +0.218 A 
ATOM     18  O   UNL     1      47.612  13.184  15.434  0.00  0.00    -0.189 OA
ATOM     19  C   UNL     1      47.232  15.453  18.834  0.00  0.00    -0.256 A 
ATOM     20  C   UNL     1      47.127  16.207  20.098  0.00  0.00    +0.414 C 
ATOM     21  O   UNL     1      47.426  15.712  21.164  0.00  0.00    -0.432 OA
ENDROOT
BRANCH   8   7
ATOM      1  C   UNL     1      50.905  21.114  18.244  0.00  0.00    +0.105 C 
ATOM      2  C   UNL     1      49.790  20.209  18.701  0.00  0.00    -0.068 A 
ATOM      3  C   UNL     1      48.569  20.745  19.061  0.00  0.00    -0.033 A 
ATOM      4  C   UNL     1      47.542  19.912  19.481  0.00  0.00    +0.113 A 
ATOM      7  C   UNL     1      47.741  18.540  19.537  0.00  0.00    -0.084 A 
ATOM     22  C   UNL     1      48.962  18.004  19.176  0.00  0.00    -0.009 A 
ATOM     23  C   UNL     1      49.987  18.837  18.752  0.00  0.00    +0.093 A 
BRANCH   4   5
ATOM      5  O   UNL     1      46.341  20.440  19.837  0.00  0.00    -0.315 OA
ATOM      6  C   UNL     1      45.715  21.318  18.900  0.00  0.00    +0.242 C 
ENDBRANCH   4   5
BRANCH  23  24
ATOM     24  O   UNL     1      51.187  18.309  18.391  0.00  0.00    -0.311 OA
ATOM     25  C   UNL     1      51.217  17.523  17.197  0.00  0.00    +0.236 C 
ENDBRANCH  23  24
ENDBRANCH   8   7
TORSDOF 3
ENDMDL
MODEL 8
REMARK VINA RESULT:      -5.6      2.281      6.380
REMARK  Name = ZINC95486013
REMARK  6 active torsions:
REMARK  status: ('A' for Active; 'I' for Inactive)
REMARK    1  A    between atoms: C1_1  and  C2_2
REMARK    2  A    between atoms: C4_4  and  O5_25
REMARK    3  A    between atoms: C5_5  and  C9_10
REMARK    4  A    between atoms: C7_7  and  O1_8
REMARK    5  A    between atoms: O1_8  and  C8_9
REMARK    6  A    between atoms: O5_25  and  C20_26
REMARK                            x       y       z     vdW  Elec       q    Type
REMARK                         _______ _______ _______ _____ _____    ______ ____
ROOT
ATOM      8  C   UNL     1      49.108  17.207  19.522  0.00  0.00    +0.014 C 
ATOM      9  C   UNL     1      49.104  17.803  20.938  0.00  0.00    +0.286 C 
ATOM     10  O   UNL     1      48.514  19.103  20.903  0.00  0.00    -0.300 OA
ATOM     11  C   UNL     1      47.291  19.248  20.338  0.00  0.00    +0.193 A 
ATOM     12  C   UNL     1      46.502  20.329  20.682  0.00  0.00    -0.010 A 
ATOM     13  C   UNL     1      45.249  20.494  20.105  0.00  0.00    +0.118 A 
ATOM     14  C   UNL     1      44.780  19.556  19.165  0.00  0.00    -0.173 A 
ATOM     15  C   UNL     1      45.563  18.464  18.814  0.00  0.00    +0.177 A 
ATOM     16  C   UNL     1      43.449  20.032  18.765  0.00  0.00    -0.030 A 
ATOM     17  C   UNL     1      43.233  21.157  19.458  0.00  0.00    +0.218 A 
ATOM     18  O   UNL     1      44.288  21.429  20.246  0.00  0.00    -0.189 OA
ATOM     19  C   UNL     1      46.817  18.307  19.401  0.00  0.00    -0.256 A 
ATOM     20  C   UNL     1      47.665  17.151  19.055  0.00  0.00    +0.414 C 
ATOM     21  O   UNL     1      47.234  16.205  18.429  0.00  0.00    -0.432 OA
ENDROOT
BRANCH   8   7
ATOM      1  C   UNL     1      52.198  20.572  15.972  0.00  0.00    +0.105 C 
ATOM      2  C   UNL     1      51.393  19.695  16.896  0.00  0.00    -0.068 A 
ATOM      3  C   UNL     1      51.039  18.419  16.503  0.00  0.00    -0.033 A 
ATOM      4  C   UNL     1      50.299  17.611  17.353  0.00  0.00    +0.113 A 
ATOM      7  C   UNL     1      49.914  18.085  18.599  0.00  0.00    -0.084 A 
ATOM     22  C   UNL     1      50.268  19.361  18.992  0.00  0.00    -0.009 A 
ATOM     23  C   UNL     1      51.012  20.166  18.144  0.00  0.00    +0.093 A 
BRANCH   4   5
ATOM      5  O   UNL     1      49.950  16.356  16.965  0.00  0.00    -0.315 OA
ATOM      6  C   UNL     1      50.978  15.364  16.977  0.00  0.00    +0.242 C 
ENDBRANCH   4   5
BRANCH  23  24
ATOM     24  O   UNL     1      51.366  21.420  18.533  0.00  0.00    -0.311 OA
ATOM     25  C   UNL     1      52.227  21.529  19.669  0.00  0.00    +0.236 C 
ENDBRANCH  23  24
ENDBRANCH   8   7
TORSDOF 3
ENDMDL
MODEL 9
REMARK VINA RESULT:      -5.5      2.136      6.125
REMARK  Name = ZINC95486013
REMARK  6 active torsions:
REMARK  status: ('A' for Active; 'I' for Inactive)
REMARK    1  A    between atoms: C1_1  and  C2_2
REMARK    2  A    between atoms: C4_4  and  O5_25
REMARK    3  A    between atoms: C5_5  and  C9_10
REMARK    4  A    between atoms: C7_7  and  O1_8
REMARK    5  A    between atoms: O1_8  and  C8_9
REMARK    6  A    between atoms: O5_25  and  C20_26
REMARK                            x       y       z     vdW  Elec       q    Type
REMARK                         _______ _______ _______ _____ _____    ______ ____
ROOT
ATOM      8  C   UNL     1      49.854  19.375  21.339  0.00  0.00    +0.014 C 
ATOM      9  C   UNL     1      49.508  20.835  21.664  0.00  0.00    +0.286 C 
ATOM     10  O   UNL     1      48.516  21.302  20.750  0.00  0.00    -0.300 OA
ATOM     11  C   UNL     1      47.378  20.581  20.599  0.00  0.00    +0.193 A 
ATOM     12  C   UNL     1      46.238  21.196  20.116  0.00  0.00    -0.010 A 
ATOM     13  C   UNL     1      45.067  20.467  19.950  0.00  0.00    +0.118 A 
ATOM     14  C   UNL     1      45.041  19.097  20.274  0.00  0.00    -0.173 A 
ATOM     15  C   UNL     1      46.180  18.470  20.762  0.00  0.00    +0.177 A 
ATOM     16  C   UNL     1      43.673  18.649  19.978  0.00  0.00    -0.030 A 
ATOM     17  C   UNL     1      43.019  19.726  19.526  0.00  0.00    +0.218 A 
ATOM     18  O   UNL     1      43.835  20.794  19.510  0.00  0.00    -0.189 OA
ATOM     19  C   UNL     1      47.348  19.211  20.927  0.00  0.00    -0.256 A 
ATOM     20  C   UNL     1      48.570  18.573  21.454  0.00  0.00    +0.414 C 
ATOM     21  O   UNL     1      48.550  17.467  21.952  0.00  0.00    -0.432 OA
ENDROOT
BRANCH   8   7
ATOM      1  C   UNL     1      51.947  19.000  15.958  0.00  0.00    +0.105 C 
ATOM      2  C   UNL     1      51.403  19.097  17.360  0.00  0.00    -0.068 A 
ATOM      3  C   UNL     1      52.086  19.822  18.317  0.00  0.00    -0.033 A 
ATOM      4  C   UNL     1      51.585  19.913  19.608  0.00  0.00    +0.113 A 
ATOM      7  C   UNL     1      50.397  19.276  19.937  0.00  0.00    -0.084 A 
ATOM     22  C   UNL     1      49.714  18.552  18.980  0.00  0.00    -0.009 A 
ATOM     23  C   UNL     1      50.213  18.465  17.688  0.00  0.00    +0.093 A 
BRANCH   4   5
ATOM      5  O   UNL     1      52.259  20.625  20.549  0.00  0.00    -0.315 OA
ATOM      6  C   UNL     1      52.730  21.919  20.170  0.00  0.00    +0.242 C 
ENDBRANCH   4   5
BRANCH  23  24
ATOM     24  O   UNL     1      49.537  17.757  16.745  0.00  0.00    -0.311 OA
ATOM     25  C   UNL     1      48.539  16.844  17.209  0.00  0.00    +0.236 C 
ENDBRANCH  23  24
ENDBRANCH   8   7
TORSDOF 3
ENDMDL
