MODEL 1
REMARK VINA RESULT:      -5.6      0.000      0.000
REMARK  Name = ZINC95486023
REMARK  10 active torsions:
REMARK  status: ('A' for Active; 'I' for Inactive)
REMARK    1  A    between atoms: C1_1  and  C2_2
REMARK    2  A    between atoms: C6_6  and  C24_30
REMARK    3  A    between atoms: C7_7  and  C13_15
REMARK    4  A    between atoms: C8_8  and  O2_14
REMARK    5  A    between atoms: C10_10  and  O1_12
REMARK    6  A    between atoms: O1_12  and  C12_13
REMARK    7  A    between atoms: C14_16  and  O4_29
REMARK    8  A    between atoms: C18_20  and  O3_21
REMARK    9  A    between atoms: O3_21  and  C19_22
REMARK   10  A    between atoms: C21_25  and  C23_28
REMARK                            x       y       z     vdW  Elec       q    Type
REMARK                         _______ _______ _______ _____ _____    ______ ____
ROOT
ATOM      1  C   UNL     1      45.515  24.731  21.003  0.00  0.00    +0.093 C 
ATOM      2  C   UNL     1      45.424  23.275  20.626  0.00  0.00    -0.031 A 
ATOM      3  C   UNL     1      46.434  22.430  20.969  0.00  0.00    -0.028 A 
ATOM      4  C   UNL     1      46.360  21.070  20.623  0.00  0.00    +0.011 A 
ATOM      5  C   UNL     1      47.392  20.177  20.968  0.00  0.00    +0.004 A 
ATOM      6  C   UNL     1      47.302  18.866  20.624  0.00  0.00    -0.033 A 
ATOM      7  C   UNL     1      48.415  17.922  21.000  0.00  0.00    +0.095 C 
ATOM      8  C   UNL     1      46.188  18.379  19.924  0.00  0.00    -0.076 A 
ATOM     24  C   UNL     1      45.153  19.231  19.568  0.00  0.00    +0.166 A 
ATOM     27  C   UNL     1      45.228  20.593  19.917  0.00  0.00    -0.105 A 
ATOM     28  C   UNL     1      44.197  21.491  19.574  0.00  0.00    +0.161 A 
ATOM     31  C   UNL     1      44.305  22.815  19.937  0.00  0.00    -0.100 A 
ENDROOT
BRANCH   8   9
ATOM      9  C   UNL     1      46.117  16.943  19.562  0.00  0.00    -0.085 A 
ATOM     10  C   UNL     1      45.498  16.033  20.425  0.00  0.00    +0.161 A 
ATOM     13  C   UNL     1      45.428  14.686  20.091  0.00  0.00    -0.009 A 
ATOM     14  C   UNL     1      45.967  14.240  18.907  0.00  0.00    -0.034 A 
ATOM     15  C   UNL     1      46.589  15.139  18.031  0.00  0.00    -0.151 A 
ATOM     16  C   UNL     1      47.154  14.622  16.775  0.00  0.00    +0.361 C 
ATOM     17  N   UNL     1      46.768  13.476  16.320  0.00  0.00    -0.506 NA
ATOM     18  C   UNL     1      45.765  12.666  17.005  0.00  0.00    +0.147 C 
ATOM     19  C   UNL     1      45.942  11.201  16.599  0.00  0.00    +0.055 C 
ATOM     20  C   UNL     1      45.903  12.785  18.522  0.00  0.00    +0.075 C 
ATOM     21  C   UNL     1      46.660  16.497  18.355  0.00  0.00    +0.160 A 
BRANCH  10  11
ATOM     11  O   UNL     1      44.965  16.467  21.596  0.00  0.00    -0.484 OA
ATOM     12  H   UNL     1      45.122  15.874  22.343  0.00  0.00    +0.393 HD
ENDBRANCH  10  11
BRANCH  21  22
ATOM     22  O   UNL     1      47.257  17.372  17.508  0.00  0.00    -0.324 OA
ATOM     23  C   UNL     1      48.685  17.362  17.464  0.00  0.00    +0.231 C 
ENDBRANCH  21  22
ENDBRANCH   8   9
BRANCH  24  25
ATOM     25  O   UNL     1      44.076  18.757  18.890  0.00  0.00    -0.471 OA
ATOM     26  H   UNL     1      44.291  18.080  18.235  0.00  0.00    +0.381 HD
ENDBRANCH  24  25
BRANCH  28  29
ATOM     29  O   UNL     1      43.104  21.053  18.898  0.00  0.00    -0.296 OA
ATOM     30  C   UNL     1      41.895  21.795  19.069  0.00  0.00    +0.240 C 
ENDBRANCH  28  29
TORSDOF 5
ENDMDL
MODEL 2
REMARK VINA RESULT:      -5.6      3.278      8.205
REMARK  Name = ZINC95486023
REMARK  10 active torsions:
REMARK  status: ('A' for Active; 'I' for Inactive)
REMARK    1  A    between atoms: C1_1  and  C2_2
REMARK    2  A    between atoms: C6_6  and  C24_30
REMARK    3  A    between atoms: C7_7  and  C13_15
REMARK    4  A    between atoms: C8_8  and  O2_14
REMARK    5  A    between atoms: C10_10  and  O1_12
REMARK    6  A    between atoms: O1_12  and  C12_13
REMARK    7  A    between atoms: C14_16  and  O4_29
REMARK    8  A    between atoms: C18_20  and  O3_21
REMARK    9  A    between atoms: O3_21  and  C19_22
REMARK   10  A    between atoms: C21_25  and  C23_28
REMARK                            x       y       z     vdW  Elec       q    Type
REMARK                         _______ _______ _______ _____ _____    ______ ____
ROOT
ATOM      1  C   UNL     1      51.341  10.615  14.090  0.00  0.00    +0.093 C 
ATOM      2  C   UNL     1      50.341  11.517  14.765  0.00  0.00    -0.031 A 
ATOM      3  C   UNL     1      50.782  12.580  15.493  0.00  0.00    -0.028 A 
ATOM      4  C   UNL     1      49.859  13.429  16.127  0.00  0.00    +0.011 A 
ATOM      5  C   UNL     1      50.292  14.534  16.883  0.00  0.00    +0.004 A 
ATOM      6  C   UNL     1      49.385  15.342  17.489  0.00  0.00    -0.033 A 
ATOM      7  C   UNL     1      49.863  16.522  18.297  0.00  0.00    +0.095 C 
ATOM      8  C   UNL     1      48.008  15.095  17.374  0.00  0.00    -0.076 A 
ATOM     24  C   UNL     1      47.547  14.015  16.636  0.00  0.00    +0.166 A 
ATOM     27  C   UNL     1      48.473  13.167  16.001  0.00  0.00    -0.105 A 
ATOM     28  C   UNL     1      48.044  12.059  15.241  0.00  0.00    +0.161 A 
ATOM     31  C   UNL     1      48.981  11.255  14.631  0.00  0.00    -0.100 A 
ENDROOT
BRANCH   8   9
ATOM      9  C   UNL     1      47.040  15.995  18.046  0.00  0.00    -0.085 A 
ATOM     10  C   UNL     1      46.558  17.128  17.381  0.00  0.00    +0.161 A 
ATOM     13  C   UNL     1      45.650  17.974  18.005  0.00  0.00    -0.009 A 
ATOM     14  C   UNL     1      45.220  17.703  19.282  0.00  0.00    -0.034 A 
ATOM     15  C   UNL     1      45.692  16.572  19.962  0.00  0.00    -0.151 A 
ATOM     16  C   UNL     1      45.208  16.317  21.328  0.00  0.00    +0.361 C 
ATOM     17  N   UNL     1      44.123  16.884  21.741  0.00  0.00    -0.506 NA
ATOM     18  C   UNL     1      43.335  17.769  20.889  0.00  0.00    +0.147 C 
ATOM     19  C   UNL     1      42.505  18.705  21.770  0.00  0.00    +0.055 C 
ATOM     20  C   UNL     1      44.235  18.605  19.981  0.00  0.00    +0.075 C 
ATOM     21  C   UNL     1      46.602  15.710  19.341  0.00  0.00    +0.160 A 
BRANCH  10  11
ATOM     11  O   UNL     1      46.981  17.402  16.120  0.00  0.00    -0.484 OA
ATOM     12  H   UNL     1      47.933  17.554  16.049  0.00  0.00    +0.393 HD
ENDBRANCH  10  11
BRANCH  21  22
ATOM     22  O   UNL     1      47.058  14.612  19.992  0.00  0.00    -0.324 OA
ATOM     23  C   UNL     1      46.198  13.470  20.020  0.00  0.00    +0.231 C 
ENDBRANCH  21  22
ENDBRANCH   8   9
BRANCH  24  25
ATOM     25  O   UNL     1      46.214  13.778  16.526  0.00  0.00    -0.471 OA
ATOM     26  H   UNL     1      45.726  13.884  17.354  0.00  0.00    +0.381 HD
ENDBRANCH  24  25
BRANCH  28  29
ATOM     29  O   UNL     1      46.720  11.791  15.108  0.00  0.00    -0.296 OA
ATOM     30  C   UNL     1      46.291  10.465  15.423  0.00  0.00    +0.240 C 
ENDBRANCH  28  29
TORSDOF 5
ENDMDL
MODEL 3
REMARK VINA RESULT:      -5.3      3.562      5.082
REMARK  Name = ZINC95486023
REMARK  10 active torsions:
REMARK  status: ('A' for Active; 'I' for Inactive)
REMARK    1  A    between atoms: C1_1  and  C2_2
REMARK    2  A    between atoms: C6_6  and  C24_30
REMARK    3  A    between atoms: C7_7  and  C13_15
REMARK    4  A    between atoms: C8_8  and  O2_14
REMARK    5  A    between atoms: C10_10  and  O1_12
REMARK    6  A    between atoms: O1_12  and  C12_13
REMARK    7  A    between atoms: C14_16  and  O4_29
REMARK    8  A    between atoms: C18_20  and  O3_21
REMARK    9  A    between atoms: O3_21  and  C19_22
REMARK   10  A    between atoms: C21_25  and  C23_28
REMARK                            x       y       z     vdW  Elec       q    Type
REMARK                         _______ _______ _______ _____ _____    ______ ____
ROOT
ATOM      1  C   UNL     1      52.623  22.265  20.445  0.00  0.00    +0.093 C 
ATOM      2  C   UNL     1      51.911  21.079  19.847  0.00  0.00    -0.031 A 
ATOM      3  C   UNL     1      50.812  20.573  20.471  0.00  0.00    -0.028 A 
ATOM      4  C   UNL     1      50.140  19.468  19.922  0.00  0.00    +0.011 A 
ATOM      5  C   UNL     1      49.000  18.929  20.549  0.00  0.00    +0.004 A 
ATOM      6  C   UNL     1      48.364  17.860  20.004  0.00  0.00    -0.033 A 
ATOM      7  C   UNL     1      47.146  17.293  20.686  0.00  0.00    +0.095 C 
ATOM      8  C   UNL     1      48.826  17.276  18.814  0.00  0.00    -0.076 A 
ATOM     24  C   UNL     1      49.946  17.782  18.170  0.00  0.00    +0.166 A 
ATOM     27  C   UNL     1      50.617  18.890  18.720  0.00  0.00    -0.105 A 
ATOM     28  C   UNL     1      51.758  19.434  18.097  0.00  0.00    +0.161 A 
ATOM     31  C   UNL     1      52.385  20.521  18.663  0.00  0.00    -0.100 A 
ENDROOT
BRANCH   8   9
ATOM      9  C   UNL     1      48.111  16.110  18.242  0.00  0.00    -0.085 A 
ATOM     10  C   UNL     1      47.122  16.302  17.271  0.00  0.00    +0.161 A 
ATOM     13  C   UNL     1      46.450  15.213  16.731  0.00  0.00    -0.009 A 
ATOM     14  C   UNL     1      46.754  13.938  17.147  0.00  0.00    -0.034 A 
ATOM     15  C   UNL     1      47.743  13.729  18.117  0.00  0.00    -0.151 A 
ATOM     16  C   UNL     1      48.039  12.350  18.537  0.00  0.00    +0.361 C 
ATOM     17  N   UNL     1      47.683  11.360  17.786  0.00  0.00    -0.506 NA
ATOM     18  C   UNL     1      47.003  11.558  16.509  0.00  0.00    +0.147 C 
ATOM     19  C   UNL     1      46.218  10.291  16.159  0.00  0.00    +0.055 C 
ATOM     20  C   UNL     1      46.040  12.741  16.575  0.00  0.00    +0.075 C 
ATOM     21  C   UNL     1      48.430  14.817  18.664  0.00  0.00    +0.160 A 
BRANCH  10  11
ATOM     11  O   UNL     1      46.817  17.559  16.857  0.00  0.00    -0.484 OA
ATOM     12  H   UNL     1      46.692  17.638  15.902  0.00  0.00    +0.393 HD
ENDBRANCH  10  11
BRANCH  21  22
ATOM     22  O   UNL     1      49.391  14.620  19.599  0.00  0.00    -0.324 OA
ATOM     23  C   UNL     1      50.704  14.310  19.125  0.00  0.00    +0.231 C 
ENDBRANCH  21  22
ENDBRANCH   8   9
BRANCH  24  25
ATOM     25  O   UNL     1      50.390  17.214  17.019  0.00  0.00    -0.471 OA
ATOM     26  H   UNL     1      49.689  17.002  16.389  0.00  0.00    +0.381 HD
ENDBRANCH  24  25
BRANCH  28  29
ATOM     29  O   UNL     1      52.231  18.894  16.944  0.00  0.00    -0.296 OA
ATOM     30  C   UNL     1      52.316  19.759  15.809  0.00  0.00    +0.240 C 
ENDBRANCH  28  29
TORSDOF 5
ENDMDL
MODEL 4
REMARK VINA RESULT:      -5.3      2.774      7.175
REMARK  Name = ZINC95486023
REMARK  10 active torsions:
REMARK  status: ('A' for Active; 'I' for Inactive)
REMARK    1  A    between atoms: C1_1  and  C2_2
REMARK    2  A    between atoms: C6_6  and  C24_30
REMARK    3  A    between atoms: C7_7  and  C13_15
REMARK    4  A    between atoms: C8_8  and  O2_14
REMARK    5  A    between atoms: C10_10  and  O1_12
REMARK    6  A    between atoms: O1_12  and  C12_13
REMARK    7  A    between atoms: C14_16  and  O4_29
REMARK    8  A    between atoms: C18_20  and  O3_21
REMARK    9  A    between atoms: O3_21  and  C19_22
REMARK   10  A    between atoms: C21_25  and  C23_28
REMARK                            x       y       z     vdW  Elec       q    Type
REMARK                         _______ _______ _______ _____ _____    ______ ____
ROOT
ATOM      1  C   UNL     1      51.380  13.135  19.520  0.00  0.00    +0.093 C 
ATOM      2  C   UNL     1      50.241  14.103  19.325  0.00  0.00    -0.031 A 
ATOM      3  C   UNL     1      49.969  15.019  20.294  0.00  0.00    -0.028 A 
ATOM      4  C   UNL     1      48.910  15.928  20.123  0.00  0.00    +0.011 A 
ATOM      5  C   UNL     1      48.611  16.885  21.111  0.00  0.00    +0.004 A 
ATOM      6  C   UNL     1      47.584  17.754  20.928  0.00  0.00    -0.033 A 
ATOM      7  C   UNL     1      47.274  18.773  21.995  0.00  0.00    +0.095 C 
ATOM      8  C   UNL     1      46.807  17.717  19.761  0.00  0.00    -0.076 A 
ATOM     24  C   UNL     1      47.074  16.786  18.766  0.00  0.00    +0.166 A 
ATOM     27  C   UNL     1      48.135  15.878  18.939  0.00  0.00    -0.105 A 
ATOM     28  C   UNL     1      48.440  14.918  17.952  0.00  0.00    +0.161 A 
ATOM     31  C   UNL     1      49.490  14.050  18.155  0.00  0.00    -0.100 A 
ENDROOT
BRANCH   8   9
ATOM      9  C   UNL     1      45.691  18.678  19.588  0.00  0.00    -0.085 A 
ATOM     10  C   UNL     1      45.940  19.954  19.070  0.00  0.00    +0.161 A 
ATOM     13  C   UNL     1      44.898  20.858  18.905  0.00  0.00    -0.009 A 
ATOM     14  C   UNL     1      43.616  20.504  19.250  0.00  0.00    -0.034 A 
ATOM     15  C   UNL     1      43.350  19.230  19.770  0.00  0.00    -0.151 A 
ATOM     16  C   UNL     1      41.964  18.890  20.128  0.00  0.00    +0.361 C 
ATOM     17  N   UNL     1      40.986  19.581  19.640  0.00  0.00    -0.506 NA
ATOM     18  C   UNL     1      41.203  20.693  18.720  0.00  0.00    +0.147 C 
ATOM     19  C   UNL     1      40.001  21.638  18.785  0.00  0.00    +0.055 C 
ATOM     20  C   UNL     1      42.469  21.468  19.080  0.00  0.00    +0.075 C 
ATOM     21  C   UNL     1      44.389  18.310  19.934  0.00  0.00    +0.160 A 
BRANCH  10  11
ATOM     11  O   UNL     1      47.205  20.309  18.728  0.00  0.00    -0.484 OA
ATOM     12  H   UNL     1      47.453  20.061  17.827  0.00  0.00    +0.393 HD
ENDBRANCH  10  11
BRANCH  21  22
ATOM     22  O   UNL     1      44.136  17.074  20.431  0.00  0.00    -0.324 OA
ATOM     23  C   UNL     1      44.026  16.956  21.851  0.00  0.00    +0.231 C 
ENDBRANCH  21  22
ENDBRANCH   8   9
BRANCH  24  25
ATOM     25  O   UNL     1      46.320  16.752  17.637  0.00  0.00    -0.471 OA
ATOM     26  H   UNL     1      45.532  17.311  17.674  0.00  0.00    +0.381 HD
ENDBRANCH  24  25
BRANCH  28  29
ATOM     29  O   UNL     1      47.709  14.855  16.810  0.00  0.00    -0.296 OA
ATOM     30  C   UNL     1      47.797  13.648  16.050  0.00  0.00    +0.240 C 
ENDBRANCH  28  29
TORSDOF 5
ENDMDL
MODEL 5
REMARK VINA RESULT:      -5.1      3.411      7.927
REMARK  Name = ZINC95486023
REMARK  10 active torsions:
REMARK  status: ('A' for Active; 'I' for Inactive)
REMARK    1  A    between atoms: C1_1  and  C2_2
REMARK    2  A    between atoms: C6_6  and  C24_30
REMARK    3  A    between atoms: C7_7  and  C13_15
REMARK    4  A    between atoms: C8_8  and  O2_14
REMARK    5  A    between atoms: C10_10  and  O1_12
REMARK    6  A    between atoms: O1_12  and  C12_13
REMARK    7  A    between atoms: C14_16  and  O4_29
REMARK    8  A    between atoms: C18_20  and  O3_21
REMARK    9  A    between atoms: O3_21  and  C19_22
REMARK   10  A    between atoms: C21_25  and  C23_28
REMARK                            x       y       z     vdW  Elec       q    Type
REMARK                         _______ _______ _______ _____ _____    ______ ____
ROOT
ATOM      1  C   UNL     1      51.062  11.338  13.680  0.00  0.00    +0.093 C 
ATOM      2  C   UNL     1      50.046  11.934  14.620  0.00  0.00    -0.031 A 
ATOM      3  C   UNL     1      50.454  12.808  15.580  0.00  0.00    -0.028 A 
ATOM      4  C   UNL     1      49.516  13.371  16.462  0.00  0.00    +0.011 A 
ATOM      5  C   UNL     1      49.914  14.278  17.461  0.00  0.00    +0.004 A 
ATOM      6  C   UNL     1      48.993  14.811  18.305  0.00  0.00    -0.033 A 
ATOM      7  C   UNL     1      49.434  15.781  19.371  0.00  0.00    +0.095 C 
ATOM      8  C   UNL     1      47.636  14.472  18.197  0.00  0.00    -0.076 A 
ATOM     24  C   UNL     1      47.208  13.581  17.223  0.00  0.00    +0.166 A 
ATOM     27  C   UNL     1      48.149  13.019  16.340  0.00  0.00    -0.105 A 
ATOM     28  C   UNL     1      47.755  12.111  15.337  0.00  0.00    +0.161 A 
ATOM     31  C   UNL     1      48.705  11.586  14.488  0.00  0.00    -0.100 A 
ENDROOT
BRANCH   8   9
ATOM      9  C   UNL     1      46.651  15.069  19.131  0.00  0.00    -0.085 A 
ATOM     10  C   UNL     1      46.359  14.433  20.342  0.00  0.00    +0.161 A 
ATOM     13  C   UNL     1      45.438  14.989  21.221  0.00  0.00    -0.009 A 
ATOM     14  C   UNL     1      44.808  16.169  20.906  0.00  0.00    -0.034 A 
ATOM     15  C   UNL     1      45.089  16.819  19.697  0.00  0.00    -0.151 A 
ATOM     16  C   UNL     1      44.393  18.079  19.395  0.00  0.00    +0.361 C 
ATOM     17  N   UNL     1      43.839  18.752  20.350  0.00  0.00    -0.506 NA
ATOM     18  C   UNL     1      43.891  18.313  21.741  0.00  0.00    +0.147 C 
ATOM     19  C   UNL     1      42.719  18.934  22.505  0.00  0.00    +0.055 C 
ATOM     20  C   UNL     1      43.806  16.792  21.843  0.00  0.00    +0.075 C 
ATOM     21  C   UNL     1      46.019  16.272  18.807  0.00  0.00    +0.160 A 
BRANCH  10  11
ATOM     11  O   UNL     1      46.978  13.267  20.659  0.00  0.00    -0.484 OA
ATOM     12  H   UNL     1      47.202  13.183  21.596  0.00  0.00    +0.393 HD
ENDBRANCH  10  11
BRANCH  21  22
ATOM     22  O   UNL     1      46.299  16.900  17.639  0.00  0.00    -0.324 OA
ATOM     23  C   UNL     1      47.212  17.998  17.695  0.00  0.00    +0.231 C 
ENDBRANCH  21  22
ENDBRANCH   8   9
BRANCH  24  25
ATOM     25  O   UNL     1      45.893  13.254  17.122  0.00  0.00    -0.471 OA
ATOM     26  H   UNL     1      45.379  13.441  17.918  0.00  0.00    +0.381 HD
ENDBRANCH  24  25
BRANCH  28  29
ATOM     29  O   UNL     1      46.450  11.761  15.204  0.00  0.00    -0.296 OA
ATOM     30  C   UNL     1      46.115  10.395  15.457  0.00  0.00    +0.240 C 
ENDBRANCH  28  29
TORSDOF 5
ENDMDL
MODEL 6
REMARK VINA RESULT:      -5.1      4.750      6.771
REMARK  Name = ZINC95486023
REMARK  10 active torsions:
REMARK  status: ('A' for Active; 'I' for Inactive)
REMARK    1  A    between atoms: C1_1  and  C2_2
REMARK    2  A    between atoms: C6_6  and  C24_30
REMARK    3  A    between atoms: C7_7  and  C13_15
REMARK    4  A    between atoms: C8_8  and  O2_14
REMARK    5  A    between atoms: C10_10  and  O1_12
REMARK    6  A    between atoms: O1_12  and  C12_13
REMARK    7  A    between atoms: C14_16  and  O4_29
REMARK    8  A    between atoms: C18_20  and  O3_21
REMARK    9  A    between atoms: O3_21  and  C19_22
REMARK   10  A    between atoms: C21_25  and  C23_28
REMARK                            x       y       z     vdW  Elec       q    Type
REMARK                         _______ _______ _______ _____ _____    ______ ____
ROOT
ATOM      1  C   UNL     1      44.727  21.546  19.174  0.00  0.00    +0.093 C 
ATOM      2  C   UNL     1      45.932  20.654  19.337  0.00  0.00    -0.031 A 
ATOM      3  C   UNL     1      47.167  21.135  19.028  0.00  0.00    -0.028 A 
ATOM      4  C   UNL     1      48.297  20.313  19.175  0.00  0.00    +0.011 A 
ATOM      5  C   UNL     1      49.585  20.790  18.863  0.00  0.00    +0.004 A 
ATOM      6  C   UNL     1      50.665  19.980  19.012  0.00  0.00    -0.033 A 
ATOM      7  C   UNL     1      52.038  20.503  18.673  0.00  0.00    +0.095 C 
ATOM      8  C   UNL     1      50.521  18.664  19.477  0.00  0.00    -0.076 A 
ATOM     24  C   UNL     1      49.267  18.162  19.794  0.00  0.00    +0.166 A 
ATOM     27  C   UNL     1      48.136  18.987  19.646  0.00  0.00    -0.105 A 
ATOM     28  C   UNL     1      46.845  18.516  19.958  0.00  0.00    +0.161 A 
ATOM     31  C   UNL     1      45.763  19.354  19.805  0.00  0.00    -0.100 A 
ENDROOT
BRANCH   8   9
ATOM      9  C   UNL     1      51.718  17.803  19.630  0.00  0.00    -0.085 A 
ATOM     10  C   UNL     1      52.183  17.050  18.547  0.00  0.00    +0.161 A 
ATOM     13  C   UNL     1      53.305  16.242  18.684  0.00  0.00    -0.009 A 
ATOM     14  C   UNL     1      53.966  16.178  19.888  0.00  0.00    -0.034 A 
ATOM     15  C   UNL     1      53.514  16.926  20.983  0.00  0.00    -0.151 A 
ATOM     16  C   UNL     1      54.248  16.830  22.254  0.00  0.00    +0.361 C 
ATOM     17  N   UNL     1      55.460  16.382  22.264  0.00  0.00    -0.506 NA
ATOM     18  C   UNL     1      56.148  15.976  21.042  0.00  0.00    +0.147 C 
ATOM     19  C   UNL     1      57.262  14.989  21.399  0.00  0.00    +0.055 C 
ATOM     20  C   UNL     1      55.185  15.309  20.062  0.00  0.00    +0.075 C 
ATOM     21  C   UNL     1      52.390  17.747  20.854  0.00  0.00    +0.160 A 
BRANCH  10  11
ATOM     11  O   UNL     1      51.534  17.108  17.355  0.00  0.00    -0.484 OA
ATOM     12  H   UNL     1      51.157  16.265  17.072  0.00  0.00    +0.393 HD
ENDBRANCH  10  11
BRANCH  21  22
ATOM     22  O   UNL     1      51.951  18.478  21.909  0.00  0.00    -0.324 OA
ATOM     23  C   UNL     1      52.639  19.701  22.182  0.00  0.00    +0.231 C 
ENDBRANCH  21  22
ENDBRANCH   8   9
BRANCH  24  25
ATOM     25  O   UNL     1      49.131  16.888  20.243  0.00  0.00    -0.471 OA
ATOM     26  H   UNL     1      49.004  16.819  21.198  0.00  0.00    +0.381 HD
ENDBRANCH  24  25
BRANCH  28  29
ATOM     29  O   UNL     1      46.670  17.248  20.411  0.00  0.00    -0.296 OA
ATOM     30  C   UNL     1      45.473  16.576  20.013  0.00  0.00    +0.240 C 
ENDBRANCH  28  29
TORSDOF 5
ENDMDL
MODEL 7
REMARK VINA RESULT:      -4.9      3.267      8.069
REMARK  Name = ZINC95486023
REMARK  10 active torsions:
REMARK  status: ('A' for Active; 'I' for Inactive)
REMARK    1  A    between atoms: C1_1  and  C2_2
REMARK    2  A    between atoms: C6_6  and  C24_30
REMARK    3  A    between atoms: C7_7  and  C13_15
REMARK    4  A    between atoms: C8_8  and  O2_14
REMARK    5  A    between atoms: C10_10  and  O1_12
REMARK    6  A    between atoms: O1_12  and  C12_13
REMARK    7  A    between atoms: C14_16  and  O4_29
REMARK    8  A    between atoms: C18_20  and  O3_21
REMARK    9  A    between atoms: O3_21  and  C19_22
REMARK   10  A    between atoms: C21_25  and  C23_28
REMARK                            x       y       z     vdW  Elec       q    Type
REMARK                         _______ _______ _______ _____ _____    ______ ____
ROOT
ATOM      1  C   UNL     1      51.412  11.228  14.144  0.00  0.00    +0.093 C 
ATOM      2  C   UNL     1      50.645  12.052  15.146  0.00  0.00    -0.031 A 
ATOM      3  C   UNL     1      49.325  11.791  15.357  0.00  0.00    -0.028 A 
ATOM      4  C   UNL     1      48.600  12.552  16.290  0.00  0.00    +0.011 A 
ATOM      5  C   UNL     1      47.235  12.299  16.526  0.00  0.00    +0.004 A 
ATOM      6  C   UNL     1      46.551  13.046  17.431  0.00  0.00    -0.033 A 
ATOM      7  C   UNL     1      45.090  12.765  17.672  0.00  0.00    +0.095 C 
ATOM      8  C   UNL     1      47.185  14.074  18.144  0.00  0.00    -0.076 A 
ATOM     24  C   UNL     1      48.529  14.350  17.936  0.00  0.00    +0.166 A 
ATOM     27  C   UNL     1      49.254  13.586  17.003  0.00  0.00    -0.105 A 
ATOM     28  C   UNL     1      50.621  13.834  16.763  0.00  0.00    +0.161 A 
ATOM     31  C   UNL     1      51.298  13.062  15.846  0.00  0.00    -0.100 A 
ENDROOT
BRANCH   8   9
ATOM      9  C   UNL     1      46.413  14.873  19.126  0.00  0.00    -0.085 A 
ATOM     10  C   UNL     1      46.265  14.416  20.439  0.00  0.00    +0.161 A 
ATOM     13  C   UNL     1      45.544  15.161  21.364  0.00  0.00    -0.009 A 
ATOM     14  C   UNL     1      44.969  16.353  20.992  0.00  0.00    -0.034 A 
ATOM     15  C   UNL     1      45.108  16.825  19.681  0.00  0.00    -0.151 A 
ATOM     16  C   UNL     1      44.477  18.105  19.322  0.00  0.00    +0.361 C 
ATOM     17  N   UNL     1      44.139  18.937  20.251  0.00  0.00    -0.506 NA
ATOM     18  C   UNL     1      44.374  18.662  21.665  0.00  0.00    +0.147 C 
ATOM     19  C   UNL     1      43.393  19.482  22.505  0.00  0.00    +0.055 C 
ATOM     20  C   UNL     1      44.183  17.179  21.977  0.00  0.00    +0.075 C 
ATOM     21  C   UNL     1      45.837  16.087  18.743  0.00  0.00    +0.160 A 
BRANCH  10  11
ATOM     11  O   UNL     1      46.830  13.238  20.812  0.00  0.00    -0.484 OA
ATOM     12  H   UNL     1      47.521  12.926  20.213  0.00  0.00    +0.393 HD
ENDBRANCH  10  11
BRANCH  21  22
ATOM     22  O   UNL     1      45.979  16.542  17.474  0.00  0.00    -0.324 OA
ATOM     23  C   UNL     1      46.971  17.547  17.252  0.00  0.00    +0.231 C 
ENDBRANCH  21  22
ENDBRANCH   8   9
BRANCH  24  25
ATOM     25  O   UNL     1      49.139  15.347  18.628  0.00  0.00    -0.471 OA
ATOM     26  H   UNL     1      48.528  15.933  19.094  0.00  0.00    +0.381 HD
ENDBRANCH  24  25
BRANCH  28  29
ATOM     29  O   UNL     1      51.266  14.822  17.436  0.00  0.00    -0.296 OA
ATOM     30  C   UNL     1      51.800  15.895  16.659  0.00  0.00    +0.240 C 
ENDBRANCH  28  29
TORSDOF 5
ENDMDL
MODEL 8
REMARK VINA RESULT:      -4.8      3.623      8.234
REMARK  Name = ZINC95486023
REMARK  10 active torsions:
REMARK  status: ('A' for Active; 'I' for Inactive)
REMARK    1  A    between atoms: C1_1  and  C2_2
REMARK    2  A    between atoms: C6_6  and  C24_30
REMARK    3  A    between atoms: C7_7  and  C13_15
REMARK    4  A    between atoms: C8_8  and  O2_14
REMARK    5  A    between atoms: C10_10  and  O1_12
REMARK    6  A    between atoms: O1_12  and  C12_13
REMARK    7  A    between atoms: C14_16  and  O4_29
REMARK    8  A    between atoms: C18_20  and  O3_21
REMARK    9  A    between atoms: O3_21  and  C19_22
REMARK   10  A    between atoms: C21_25  and  C23_28
REMARK                            x       y       z     vdW  Elec       q    Type
REMARK                         _______ _______ _______ _____ _____    ______ ____
ROOT
ATOM      1  C   UNL     1      53.101  10.695  15.208  0.00  0.00    +0.093 C 
ATOM      2  C   UNL     1      51.950  11.574  15.625  0.00  0.00    -0.031 A 
ATOM      3  C   UNL     1      51.931  12.101  16.880  0.00  0.00    -0.028 A 
ATOM      4  C   UNL     1      50.864  12.922  17.280  0.00  0.00    +0.011 A 
ATOM      5  C   UNL     1      50.823  13.479  18.572  0.00  0.00    +0.004 A 
ATOM      6  C   UNL     1      49.782  14.270  18.941  0.00  0.00    -0.033 A 
ATOM      7  C   UNL     1      49.751  14.859  20.328  0.00  0.00    +0.095 C 
ATOM      8  C   UNL     1      48.736  14.548  18.048  0.00  0.00    -0.076 A 
ATOM     24  C   UNL     1      48.744  14.015  16.767  0.00  0.00    +0.166 A 
ATOM     27  C   UNL     1      49.815  13.194  16.368  0.00  0.00    -0.105 A 
ATOM     28  C   UNL     1      49.861  12.634  15.075  0.00  0.00    +0.161 A 
ATOM     31  C   UNL     1      50.928  11.839  14.719  0.00  0.00    -0.100 A 
ENDROOT
BRANCH   8   9
ATOM      9  C   UNL     1      47.613  15.415  18.477  0.00  0.00    -0.085 A 
ATOM     10  C   UNL     1      46.545  14.873  19.199  0.00  0.00    +0.161 A 
ATOM     13  C   UNL     1      45.490  15.681  19.605  0.00  0.00    -0.009 A 
ATOM     14  C   UNL     1      45.490  17.021  19.298  0.00  0.00    -0.034 A 
ATOM     15  C   UNL     1      46.553  17.580  18.576  0.00  0.00    -0.151 A 
ATOM     16  C   UNL     1      46.516  19.018  18.267  0.00  0.00    +0.361 C 
ATOM     17  N   UNL     1      45.743  19.801  18.945  0.00  0.00    -0.506 NA
ATOM     18  C   UNL     1      44.903  19.312  20.034  0.00  0.00    +0.147 C 
ATOM     19  C   UNL     1      43.730  20.276  20.233  0.00  0.00    +0.055 C 
ATOM     20  C   UNL     1      44.358  17.919  19.727  0.00  0.00    +0.075 C 
ATOM     21  C   UNL     1      47.622  16.777  18.168  0.00  0.00    +0.160 A 
BRANCH  10  11
ATOM     11  O   UNL     1      46.538  13.549  19.504  0.00  0.00    -0.484 OA
ATOM     12  H   UNL     1      45.943  13.022  18.955  0.00  0.00    +0.393 HD
ENDBRANCH  10  11
BRANCH  21  22
ATOM     22  O   UNL     1      48.656  17.315  17.474  0.00  0.00    -0.324 OA
ATOM     23  C   UNL     1      49.714  17.901  18.236  0.00  0.00    +0.231 C 
ENDBRANCH  21  22
ENDBRANCH   8   9
BRANCH  24  25
ATOM     25  O   UNL     1      47.729  14.285  15.905  0.00  0.00    -0.471 OA
ATOM     26  H   UNL     1      47.006  13.644  15.937  0.00  0.00    +0.381 HD
ENDBRANCH  24  25
BRANCH  28  29
ATOM     29  O   UNL     1      48.865  12.882  14.185  0.00  0.00    -0.296 OA
ATOM     30  C   UNL     1      49.241  13.024  12.814  0.00  0.00    +0.240 C 
ENDBRANCH  28  29
TORSDOF 5
ENDMDL
MODEL 9
REMARK VINA RESULT:      -4.8      3.110      4.600
REMARK  Name = ZINC95486023
REMARK  10 active torsions:
REMARK  status: ('A' for Active; 'I' for Inactive)
REMARK    1  A    between atoms: C1_1  and  C2_2
REMARK    2  A    between atoms: C6_6  and  C24_30
REMARK    3  A    between atoms: C7_7  and  C13_15
REMARK    4  A    between atoms: C8_8  and  O2_14
REMARK    5  A    between atoms: C10_10  and  O1_12
REMARK    6  A    between atoms: O1_12  and  C12_13
REMARK    7  A    between atoms: C14_16  and  O4_29
REMARK    8  A    between atoms: C18_20  and  O3_21
REMARK    9  A    between atoms: O3_21  and  C19_22
REMARK   10  A    between atoms: C21_25  and  C23_28
REMARK                            x       y       z     vdW  Elec       q    Type
REMARK                         _______ _______ _______ _____ _____    ______ ____
ROOT
ATOM      1  C   UNL     1      44.416  23.013  20.054  0.00  0.00    +0.093 C 
ATOM      2  C   UNL     1      45.433  21.914  19.880  0.00  0.00    -0.031 A 
ATOM      3  C   UNL     1      45.186  20.908  18.997  0.00  0.00    -0.028 A 
ATOM      4  C   UNL     1      46.127  19.878  18.825  0.00  0.00    +0.011 A 
ATOM      5  C   UNL     1      45.895  18.829  17.917  0.00  0.00    +0.004 A 
ATOM      6  C   UNL     1      46.816  17.842  17.766  0.00  0.00    -0.033 A 
ATOM      7  C   UNL     1      46.553  16.724  16.790  0.00  0.00    +0.095 C 
ATOM      8  C   UNL     1      48.008  17.850  18.504  0.00  0.00    -0.076 A 
ATOM     24  C   UNL     1      48.270  18.870  19.408  0.00  0.00    +0.166 A 
ATOM     27  C   UNL     1      47.327  19.901  19.578  0.00  0.00    -0.105 A 
ATOM     28  C   UNL     1      47.556  20.955  20.485  0.00  0.00    +0.161 A 
ATOM     31  C   UNL     1      46.611  21.948  20.620  0.00  0.00    -0.100 A 
ENDROOT
BRANCH   8   9
ATOM      9  C   UNL     1      48.996  16.760  18.318  0.00  0.00    -0.085 A 
ATOM     10  C   UNL     1      50.044  16.913  17.404  0.00  0.00    +0.161 A 
ATOM     13  C   UNL     1      50.973  15.896  17.227  0.00  0.00    -0.009 A 
ATOM     14  C   UNL     1      50.868  14.731  17.948  0.00  0.00    -0.034 A 
ATOM     15  C   UNL     1      49.825  14.562  18.868  0.00  0.00    -0.151 A 
ATOM     16  C   UNL     1      49.746  13.300  19.621  0.00  0.00    +0.361 C 
ATOM     17  N   UNL     1      50.788  12.542  19.715  0.00  0.00    -0.506 NA
ATOM     18  C   UNL     1      52.067  12.900  19.109  0.00  0.00    +0.147 C 
ATOM     19  C   UNL     1      52.885  11.627  18.878  0.00  0.00    +0.055 C 
ATOM     20  C   UNL     1      51.863  13.613  17.774  0.00  0.00    +0.075 C 
ATOM     21  C   UNL     1      48.887  15.582  19.060  0.00  0.00    +0.160 A 
BRANCH  10  11
ATOM     11  O   UNL     1      50.153  18.061  16.687  0.00  0.00    -0.484 OA
ATOM     12  H   UNL     1      50.741  18.718  17.084  0.00  0.00    +0.393 HD
ENDBRANCH  10  11
BRANCH  21  22
ATOM     22  O   UNL     1      47.879  15.425  19.953  0.00  0.00    -0.324 OA
ATOM     23  C   UNL     1      48.166  15.738  21.318  0.00  0.00    +0.231 C 
ENDBRANCH  21  22
ENDBRANCH   8   9
BRANCH  24  25
ATOM     25  O   UNL     1      49.426  18.874  20.122  0.00  0.00    -0.471 OA
ATOM     26  H   UNL     1      49.562  18.078  20.653  0.00  0.00    +0.381 HD
ENDBRANCH  24  25
BRANCH  28  29
ATOM     29  O   UNL     1      48.700  20.994  21.216  0.00  0.00    -0.296 OA
ATOM     30  C   UNL     1      48.646  21.677  22.469  0.00  0.00    +0.240 C 
ENDBRANCH  28  29
TORSDOF 5
ENDMDL
