MODEL 1
REMARK VINA RESULT:      -7.0      0.000      0.000
REMARK  Name = ZINC95486199
REMARK  7 active torsions:
REMARK  status: ('A' for Active; 'I' for Inactive)
REMARK    1  A    between atoms: C1_1  and  C2_2
REMARK    2  A    between atoms: C3_3  and  O3_33
REMARK    3  A    between atoms: C11_12  and  C29_32
REMARK    4  A    between atoms: C14_15  and  C28_31
REMARK    5  A    between atoms: C15_16  and  C27_30
REMARK    6  A    between atoms: C18_19  and  C25_27
REMARK    7  A    between atoms: C25_27  and  C26_29
REMARK                            x       y       z     vdW  Elec       q    Type
REMARK                         _______ _______ _______ _____ _____    ______ ____
ROOT
ATOM      1  C   UNL     1      40.992  18.534  21.005  0.00  0.00    +0.108 C 
ATOM      2  C   UNL     1      41.815  19.634  20.386  0.00  0.00    -0.073 C 
ATOM      3  C   UNL     1      41.203  20.639  19.707  0.00  0.00    +0.014 C 
ATOM      6  C   UNL     1      41.981  21.672  19.130  0.00  0.00    +0.380 C 
ATOM      7  C   UNL     1      43.381  21.668  19.278  0.00  0.00    -0.108 C 
ATOM      8  C   UNL     1      43.999  20.667  19.962  0.00  0.00    +0.030 C 
ATOM      9  C   UNL     1      45.489  20.700  20.116  0.00  0.00    -0.003 C 
ATOM     10  C   UNL     1      45.855  21.926  20.956  0.00  0.00    +0.065 C 
ATOM     11  C   UNL     1      46.171  20.852  18.756  0.00  0.00    +0.053 C 
ATOM     12  C   UNL     1      47.691  20.856  18.943  0.00  0.00    +0.036 C 
ATOM     13  C   UNL     1      48.138  19.524  19.541  0.00  0.00    -0.041 C 
ATOM     14  C   UNL     1      47.644  18.381  18.654  0.00  0.00    +0.028 C 
ATOM     15  C   UNL     1      47.529  19.371  20.960  0.00  0.00    -0.020 C 
ATOM     16  C   UNL     1      48.053  20.471  21.885  0.00  0.00    +0.050 C 
ATOM     17  C   UNL     1      47.905  17.992  21.502  0.00  0.00    +0.027 C 
ATOM     18  C   UNL     1      49.429  17.909  21.621  0.00  0.00    +0.042 C 
ATOM     19  C   UNL     1      50.077  18.117  20.251  0.00  0.00    -0.096 C 
ATOM     23  C   UNL     1      51.599  18.064  20.412  0.00  0.00    +0.048 C 
ATOM     24  C   UNL     1      52.258  18.151  18.994  0.00  0.00    +0.056 C 
ATOM     25  C   UNL     1      51.754  19.408  18.320  0.00  0.00    -0.105 C 
ATOM     26  C   UNL     1      52.589  20.284  17.819  0.00  0.00    -0.016 C 
ATOM     27  C   UNL     1      50.260  19.626  18.241  0.00  0.00    +0.078 C 
ATOM     28  C   UNL     1      49.661  19.460  19.644  0.00  0.00    +0.032 C 
ATOM     29  C   UNL     1      46.025  19.489  20.825  0.00  0.00    -0.009 C 
ATOM     30  C   UNL     1      45.239  18.530  21.319  0.00  0.00    -0.046 C 
ATOM     31  C   UNL     1      43.844  18.574  21.201  0.00  0.00    +0.150 C 
ATOM     32  O   UNL     1      41.436  22.568  18.502  0.00  0.00    -0.488 OA
ATOM     33  C   UNL     1      43.224  19.624  20.519  0.00  0.00    -0.107 C 
ENDROOT
BRANCH  19  20
ATOM     20  C   UNL     1      49.634  17.023  19.314  0.00  0.00    +0.372 C 
ATOM     21  C   UNL     1      49.235  15.677  19.864  0.00  0.00    +0.052 C 
ATOM     22  O   UNL     1      49.598  17.224  18.125  0.00  0.00    -0.446 OA
ENDBRANCH  19  20
BRANCH   3   4
ATOM      4  O   UNL     1      39.849  20.651  19.581  0.00  0.00    -0.464 OA
ATOM      5  H   UNL     1      39.380  20.840  20.404  0.00  0.00    +0.403 HD
ENDBRANCH   3   4
TORSDOF 2
ENDMDL
MODEL 2
REMARK VINA RESULT:      -6.9      1.930      7.788
REMARK  Name = ZINC95486199
REMARK  7 active torsions:
REMARK  status: ('A' for Active; 'I' for Inactive)
REMARK    1  A    between atoms: C1_1  and  C2_2
REMARK    2  A    between atoms: C3_3  and  O3_33
REMARK    3  A    between atoms: C11_12  and  C29_32
REMARK    4  A    between atoms: C14_15  and  C28_31
REMARK    5  A    between atoms: C15_16  and  C27_30
REMARK    6  A    between atoms: C18_19  and  C25_27
REMARK    7  A    between atoms: C25_27  and  C26_29
REMARK                            x       y       z     vdW  Elec       q    Type
REMARK                         _______ _______ _______ _____ _____    ______ ____
ROOT
ATOM      1  C   UNL     1      52.220  20.843  15.825  0.00  0.00    +0.108 C 
ATOM      2  C   UNL     1      51.660  19.532  16.313  0.00  0.00    -0.073 C 
ATOM      3  C   UNL     1      52.079  18.366  15.757  0.00  0.00    +0.014 C 
ATOM      6  C   UNL     1      51.552  17.137  16.223  0.00  0.00    +0.380 C 
ATOM      7  C   UNL     1      50.613  17.123  17.271  0.00  0.00    -0.108 C 
ATOM      8  C   UNL     1      50.193  18.287  17.836  0.00  0.00    +0.030 C 
ATOM      9  C   UNL     1      49.205  18.239  18.961  0.00  0.00    -0.003 C 
ATOM     10  C   UNL     1      49.868  17.536  20.148  0.00  0.00    +0.065 C 
ATOM     11  C   UNL     1      47.975  17.420  18.567  0.00  0.00    +0.053 C 
ATOM     12  C   UNL     1      46.974  17.410  19.726  0.00  0.00    +0.036 C 
ATOM     13  C   UNL     1      46.510  18.836  20.014  0.00  0.00    -0.041 C 
ATOM     14  C   UNL     1      45.943  19.452  18.734  0.00  0.00    +0.028 C 
ATOM     15  C   UNL     1      47.719  19.679  20.497  0.00  0.00    -0.020 C 
ATOM     16  C   UNL     1      48.271  19.118  21.809  0.00  0.00    +0.050 C 
ATOM     17  C   UNL     1      47.258  21.124  20.686  0.00  0.00    +0.027 C 
ATOM     18  C   UNL     1      46.183  21.159  21.774  0.00  0.00    +0.042 C 
ATOM     19  C   UNL     1      44.992  20.287  21.369  0.00  0.00    -0.096 C 
ATOM     23  C   UNL     1      43.954  20.315  22.494  0.00  0.00    +0.048 C 
ATOM     24  C   UNL     1      42.684  19.527  22.025  0.00  0.00    +0.056 C 
ATOM     25  C   UNL     1      43.119  18.135  21.624  0.00  0.00    -0.105 C 
ATOM     26  C   UNL     1      42.537  17.077  22.130  0.00  0.00    -0.016 C 
ATOM     27  C   UNL     1      44.244  17.999  20.624  0.00  0.00    +0.078 C 
ATOM     28  C   UNL     1      45.432  18.846  21.099  0.00  0.00    +0.032 C 
ATOM     29  C   UNL     1      48.784  19.605  19.422  0.00  0.00    -0.009 C 
ATOM     30  C   UNL     1      49.295  20.730  18.919  0.00  0.00    -0.046 C 
ATOM     31  C   UNL     1      50.263  20.722  17.906  0.00  0.00    +0.150 C 
ATOM     32  O   UNL     1      51.913  16.086  15.712  0.00  0.00    -0.488 OA
ATOM     33  C   UNL     1      50.703  19.516  17.356  0.00  0.00    -0.107 C 
ENDROOT
BRANCH  19  20
ATOM     20  C   UNL     1      44.378  20.833  20.105  0.00  0.00    +0.372 C 
ATOM     21  C   UNL     1      44.418  22.315  19.828  0.00  0.00    +0.052 C 
ATOM     22  O   UNL     1      43.854  20.085  19.316  0.00  0.00    -0.446 OA
ENDBRANCH  19  20
BRANCH   3   4
ATOM      4  O   UNL     1      53.000  18.379  14.757  0.00  0.00    -0.464 OA
ATOM      5  H   UNL     1      52.817  17.750  14.046  0.00  0.00    +0.403 HD
ENDBRANCH   3   4
TORSDOF 2
ENDMDL
MODEL 3
REMARK VINA RESULT:      -6.8      2.377      3.626
REMARK  Name = ZINC95486199
REMARK  7 active torsions:
REMARK  status: ('A' for Active; 'I' for Inactive)
REMARK    1  A    between atoms: C1_1  and  C2_2
REMARK    2  A    between atoms: C3_3  and  O3_33
REMARK    3  A    between atoms: C11_12  and  C29_32
REMARK    4  A    between atoms: C14_15  and  C28_31
REMARK    5  A    between atoms: C15_16  and  C27_30
REMARK    6  A    between atoms: C18_19  and  C25_27
REMARK    7  A    between atoms: C25_27  and  C26_29
REMARK                            x       y       z     vdW  Elec       q    Type
REMARK                         _______ _______ _______ _____ _____    ______ ____
ROOT
ATOM      1  C   UNL     1      40.898  21.350  18.929  0.00  0.00    +0.108 C 
ATOM      2  C   UNL     1      42.346  21.597  19.263  0.00  0.00    -0.073 C 
ATOM      3  C   UNL     1      42.870  22.844  19.130  0.00  0.00    +0.014 C 
ATOM      6  C   UNL     1      44.231  23.071  19.449  0.00  0.00    +0.380 C 
ATOM      7  C   UNL     1      45.032  22.014  19.921  0.00  0.00    -0.108 C 
ATOM      8  C   UNL     1      44.511  20.765  20.060  0.00  0.00    +0.030 C 
ATOM      9  C   UNL     1      45.385  19.664  20.580  0.00  0.00    -0.003 C 
ATOM     10  C   UNL     1      45.775  20.004  22.020  0.00  0.00    +0.065 C 
ATOM     11  C   UNL     1      46.674  19.565  19.764  0.00  0.00    +0.053 C 
ATOM     12  C   UNL     1      47.533  18.416  20.303  0.00  0.00    +0.036 C 
ATOM     13  C   UNL     1      46.781  17.097  20.146  0.00  0.00    -0.041 C 
ATOM     14  C   UNL     1      46.380  16.913  18.682  0.00  0.00    +0.028 C 
ATOM     15  C   UNL     1      45.504  17.129  21.027  0.00  0.00    -0.020 C 
ATOM     16  C   UNL     1      45.879  17.254  22.505  0.00  0.00    +0.050 C 
ATOM     17  C   UNL     1      44.714  15.843  20.782  0.00  0.00    +0.027 C 
ATOM     18  C   UNL     1      45.569  14.650  21.218  0.00  0.00    +0.042 C 
ATOM     19  C   UNL     1      46.872  14.614  20.417  0.00  0.00    -0.096 C 
ATOM     23  C   UNL     1      47.718  13.433  20.903  0.00  0.00    +0.048 C 
ATOM     24  C   UNL     1      48.991  13.321  20.000  0.00  0.00    +0.056 C 
ATOM     25  C   UNL     1      49.711  14.651  20.039  0.00  0.00    -0.105 C 
ATOM     26  C   UNL     1      50.983  14.719  20.345  0.00  0.00    -0.016 C 
ATOM     27  C   UNL     1      48.923  15.900  19.717  0.00  0.00    +0.078 C 
ATOM     28  C   UNL     1      47.655  15.920  20.580  0.00  0.00    +0.032 C 
ATOM     29  C   UNL     1      44.689  18.333  20.602  0.00  0.00    -0.009 C 
ATOM     30  C   UNL     1      43.410  18.177  20.257  0.00  0.00    -0.046 C 
ATOM     31  C   UNL     1      42.616  19.250  19.833  0.00  0.00    +0.150 C 
ATOM     32  O   UNL     1      44.710  24.187  19.313  0.00  0.00    -0.488 OA
ATOM     33  C   UNL     1      43.159  20.532  19.721  0.00  0.00    -0.107 C 
ENDROOT
BRANCH  19  20
ATOM     20  C   UNL     1      46.557  14.437  18.955  0.00  0.00    +0.372 C 
ATOM     21  C   UNL     1      45.464  13.490  18.529  0.00  0.00    +0.052 C 
ATOM     22  O   UNL     1      47.180  15.052  18.124  0.00  0.00    -0.446 OA
ENDBRANCH  19  20
BRANCH   3   4
ATOM      4  O   UNL     1      42.090  23.868  18.692  0.00  0.00    -0.464 OA
ATOM      5  H   UNL     1      41.159  23.785  18.936  0.00  0.00    +0.403 HD
ENDBRANCH   3   4
TORSDOF 2
ENDMDL
MODEL 4
REMARK VINA RESULT:      -6.6      3.080      4.602
REMARK  Name = ZINC95486199
REMARK  7 active torsions:
REMARK  status: ('A' for Active; 'I' for Inactive)
REMARK    1  A    between atoms: C1_1  and  C2_2
REMARK    2  A    between atoms: C3_3  and  O3_33
REMARK    3  A    between atoms: C11_12  and  C29_32
REMARK    4  A    between atoms: C14_15  and  C28_31
REMARK    5  A    between atoms: C15_16  and  C27_30
REMARK    6  A    between atoms: C18_19  and  C25_27
REMARK    7  A    between atoms: C25_27  and  C26_29
REMARK                            x       y       z     vdW  Elec       q    Type
REMARK                         _______ _______ _______ _____ _____    ______ ____
ROOT
ATOM      1  C   UNL     1      42.176  19.268  20.548  0.00  0.00    +0.108 C 
ATOM      2  C   UNL     1      43.543  19.600  20.010  0.00  0.00    -0.073 C 
ATOM      3  C   UNL     1      43.843  20.878  19.660  0.00  0.00    +0.014 C 
ATOM      6  C   UNL     1      45.131  21.184  19.158  0.00  0.00    +0.380 C 
ATOM      7  C   UNL     1      46.103  20.173  19.043  0.00  0.00    -0.108 C 
ATOM      8  C   UNL     1      45.810  18.892  19.397  0.00  0.00    +0.030 C 
ATOM      9  C   UNL     1      46.871  17.840  19.277  0.00  0.00    -0.003 C 
ATOM     10  C   UNL     1      47.997  18.187  20.254  0.00  0.00    +0.065 C 
ATOM     11  C   UNL     1      47.467  17.831  17.869  0.00  0.00    +0.053 C 
ATOM     12  C   UNL     1      48.529  16.730  17.772  0.00  0.00    +0.036 C 
ATOM     13  C   UNL     1      47.880  15.369  18.011  0.00  0.00    -0.041 C 
ATOM     14  C   UNL     1      46.724  15.180  17.028  0.00  0.00    +0.028 C 
ATOM     15  C   UNL     1      47.333  15.312  19.462  0.00  0.00    -0.020 C 
ATOM     16  C   UNL     1      48.478  15.442  20.468  0.00  0.00    +0.050 C 
ATOM     17  C   UNL     1      46.602  13.983  19.652  0.00  0.00    +0.027 C 
ATOM     18  C   UNL     1      47.603  12.840  19.471  0.00  0.00    +0.042 C 
ATOM     19  C   UNL     1      48.217  12.894  18.070  0.00  0.00    -0.096 C 
ATOM     23  C   UNL     1      49.239  11.761  17.935  0.00  0.00    +0.048 C 
ATOM     24  C   UNL     1      49.773  11.739  16.464  0.00  0.00    +0.056 C 
ATOM     25  C   UNL     1      50.329  13.110  16.147  0.00  0.00    -0.105 C 
ATOM     26  C   UNL     1      51.543  13.251  15.678  0.00  0.00    -0.016 C 
ATOM     27  C   UNL     1      49.444  14.312  16.387  0.00  0.00    +0.078 C 
ATOM     28  C   UNL     1      48.895  14.243  17.818  0.00  0.00    +0.032 C 
ATOM     29  C   UNL     1      46.370  16.469  19.631  0.00  0.00    -0.009 C 
ATOM     30  C   UNL     1      45.131  16.240  20.068  0.00  0.00    -0.046 C 
ATOM     31  C   UNL     1      44.191  17.267  20.220  0.00  0.00    +0.150 C 
ATOM     32  O   UNL     1      45.399  22.330  18.824  0.00  0.00    -0.488 OA
ATOM     33  C   UNL     1      44.517  18.581  19.877  0.00  0.00    -0.107 C 
ENDROOT
BRANCH  19  20
ATOM     20  C   UNL     1      47.132  12.716  17.040  0.00  0.00    +0.372 C 
ATOM     21  C   UNL     1      45.840  12.037  17.416  0.00  0.00    +0.052 C 
ATOM     22  O   UNL     1      47.298  13.116  15.913  0.00  0.00    -0.446 OA
ENDBRANCH  19  20
BRANCH   3   4
ATOM      4  O   UNL     1      42.909  21.858  19.789  0.00  0.00    -0.464 OA
ATOM      5  H   UNL     1      42.940  22.524  19.090  0.00  0.00    +0.403 HD
ENDBRANCH   3   4
TORSDOF 2
ENDMDL
MODEL 5
REMARK VINA RESULT:      -6.4      4.456      6.373
REMARK  Name = ZINC95486199
REMARK  7 active torsions:
REMARK  status: ('A' for Active; 'I' for Inactive)
REMARK    1  A    between atoms: C1_1  and  C2_2
REMARK    2  A    between atoms: C3_3  and  O3_33
REMARK    3  A    between atoms: C11_12  and  C29_32
REMARK    4  A    between atoms: C14_15  and  C28_31
REMARK    5  A    between atoms: C15_16  and  C27_30
REMARK    6  A    between atoms: C18_19  and  C25_27
REMARK    7  A    between atoms: C25_27  and  C26_29
REMARK                            x       y       z     vdW  Elec       q    Type
REMARK                         _______ _______ _______ _____ _____    ______ ____
ROOT
ATOM      1  C   UNL     1      47.412  12.837  15.207  0.00  0.00    +0.108 C 
ATOM      2  C   UNL     1      47.112  13.301  16.608  0.00  0.00    -0.073 C 
ATOM      3  C   UNL     1      45.997  12.860  17.246  0.00  0.00    +0.014 C 
ATOM      6  C   UNL     1      45.723  13.298  18.564  0.00  0.00    +0.380 C 
ATOM      7  C   UNL     1      46.612  14.171  19.218  0.00  0.00    -0.108 C 
ATOM      8  C   UNL     1      47.733  14.613  18.586  0.00  0.00    +0.030 C 
ATOM      9  C   UNL     1      48.669  15.529  19.314  0.00  0.00    -0.003 C 
ATOM     10  C   UNL     1      49.258  14.764  20.501  0.00  0.00    +0.065 C 
ATOM     11  C   UNL     1      47.917  16.739  19.872  0.00  0.00    +0.053 C 
ATOM     12  C   UNL     1      48.903  17.668  20.588  0.00  0.00    +0.036 C 
ATOM     13  C   UNL     1      49.937  18.183  19.590  0.00  0.00    -0.041 C 
ATOM     14  C   UNL     1      49.220  18.854  18.418  0.00  0.00    +0.028 C 
ATOM     15  C   UNL     1      50.776  16.990  19.062  0.00  0.00    -0.020 C 
ATOM     16  C   UNL     1      51.551  16.335  20.207  0.00  0.00    +0.050 C 
ATOM     17  C   UNL     1      51.738  17.510  17.993  0.00  0.00    +0.027 C 
ATOM     18  C   UNL     1      52.691  18.519  18.638  0.00  0.00    +0.042 C 
ATOM     19  C   UNL     1      51.900  19.687  19.231  0.00  0.00    -0.096 C 
ATOM     23  C   UNL     1      52.879  20.658  19.899  0.00  0.00    +0.048 C 
ATOM     24  C   UNL     1      52.084  21.912  20.393  0.00  0.00    +0.056 C 
ATOM     25  C   UNL     1      50.974  21.434  21.303  0.00  0.00    -0.105 C 
ATOM     26  C   UNL     1      50.828  21.933  22.505  0.00  0.00    -0.016 C 
ATOM     27  C   UNL     1      50.038  20.365  20.787  0.00  0.00    +0.078 C 
ATOM     28  C   UNL     1      50.873  19.194  20.253  0.00  0.00    +0.032 C 
ATOM     29  C   UNL     1      49.814  15.989  18.457  0.00  0.00    -0.009 C 
ATOM     30  C   UNL     1      50.000  15.564  17.206  0.00  0.00    -0.046 C 
ATOM     31  C   UNL     1      49.128  14.659  16.588  0.00  0.00    +0.150 C 
ATOM     32  O   UNL     1      44.711  12.917  19.135  0.00  0.00    -0.488 OA
ATOM     33  C   UNL     1      47.996  14.194  17.262  0.00  0.00    -0.107 C 
ENDROOT
BRANCH  19  20
ATOM     20  C   UNL     1      51.159  20.401  18.130  0.00  0.00    +0.372 C 
ATOM     21  C   UNL     1      51.700  20.383  16.723  0.00  0.00    +0.052 C 
ATOM     22  O   UNL     1      50.133  20.988  18.375  0.00  0.00    -0.446 OA
ENDBRANCH  19  20
BRANCH   3   4
ATOM      4  O   UNL     1      45.148  12.001  16.621  0.00  0.00    -0.464 OA
ATOM      5  H   UNL     1      45.407  11.073  16.689  0.00  0.00    +0.403 HD
ENDBRANCH   3   4
TORSDOF 2
ENDMDL
MODEL 6
REMARK VINA RESULT:      -6.4      1.741      2.890
REMARK  Name = ZINC95486199
REMARK  7 active torsions:
REMARK  status: ('A' for Active; 'I' for Inactive)
REMARK    1  A    between atoms: C1_1  and  C2_2
REMARK    2  A    between atoms: C3_3  and  O3_33
REMARK    3  A    between atoms: C11_12  and  C29_32
REMARK    4  A    between atoms: C14_15  and  C28_31
REMARK    5  A    between atoms: C15_16  and  C27_30
REMARK    6  A    between atoms: C18_19  and  C25_27
REMARK    7  A    between atoms: C25_27  and  C26_29
REMARK                            x       y       z     vdW  Elec       q    Type
REMARK                         _______ _______ _______ _____ _____    ______ ____
ROOT
ATOM      1  C   UNL     1      42.242  20.724  19.121  0.00  0.00    +0.108 C 
ATOM      2  C   UNL     1      43.592  21.193  19.599  0.00  0.00    -0.073 C 
ATOM      3  C   UNL     1      43.804  22.511  19.845  0.00  0.00    +0.014 C 
ATOM      6  C   UNL     1      45.075  22.945  20.298  0.00  0.00    +0.380 C 
ATOM      7  C   UNL     1      46.106  22.011  20.510  0.00  0.00    -0.108 C 
ATOM      8  C   UNL     1      45.897  20.688  20.269  0.00  0.00    +0.030 C 
ATOM      9  C   UNL     1      47.009  19.716  20.520  0.00  0.00    -0.003 C 
ATOM     10  C   UNL     1      47.315  19.718  22.019  0.00  0.00    +0.065 C 
ATOM     11  C   UNL     1      48.281  20.148  19.788  0.00  0.00    +0.053 C 
ATOM     12  C   UNL     1      49.391  19.122  20.043  0.00  0.00    +0.036 C 
ATOM     13  C   UNL     1      48.972  17.765  19.484  0.00  0.00    -0.041 C 
ATOM     14  C   UNL     1      48.618  17.914  18.004  0.00  0.00    +0.028 C 
ATOM     15  C   UNL     1      47.728  17.255  20.260  0.00  0.00    -0.020 C 
ATOM     16  C   UNL     1      48.071  17.042  21.735  0.00  0.00    +0.050 C 
ATOM     17  C   UNL     1      47.264  15.945  19.624  0.00  0.00    +0.027 C 
ATOM     18  C   UNL     1      48.380  14.906  19.767  0.00  0.00    +0.042 C 
ATOM     19  C   UNL     1      49.650  15.396  19.069  0.00  0.00    -0.096 C 
ATOM     23  C   UNL     1      50.754  14.352  19.263  0.00  0.00    +0.048 C 
ATOM     24  C   UNL     1      52.013  14.794  18.444  0.00  0.00    +0.056 C 
ATOM     25  C   UNL     1      52.397  16.186  18.891  0.00  0.00    -0.105 C 
ATOM     26  C   UNL     1      53.619  16.455  19.281  0.00  0.00    -0.016 C 
ATOM     27  C   UNL     1      51.334  17.261  18.876  0.00  0.00    +0.078 C 
ATOM     28  C   UNL     1      50.102  16.746  19.632  0.00  0.00    +0.032 C 
ATOM     29  C   UNL     1      46.649  18.310  20.133  0.00  0.00    -0.009 C 
ATOM     30  C   UNL     1      45.441  17.969  19.680  0.00  0.00    -0.046 C 
ATOM     31  C   UNL     1      44.413  18.907  19.519  0.00  0.00    +0.150 C 
ATOM     32  O   UNL     1      45.275  24.134  20.503  0.00  0.00    -0.488 OA
ATOM     33  C   UNL     1      44.636  20.257  19.796  0.00  0.00    -0.107 C 
ENDROOT
BRANCH  19  20
ATOM     20  C   UNL     1      49.378  15.570  17.597  0.00  0.00    +0.372 C 
ATOM     21  C   UNL     1      48.309  14.746  16.926  0.00  0.00    +0.052 C 
ATOM     22  O   UNL     1      50.016  16.369  16.956  0.00  0.00    -0.446 OA
ENDBRANCH  19  20
BRANCH   3   4
ATOM      4  O   UNL     1      42.802  23.411  19.658  0.00  0.00    -0.464 OA
ATOM      5  H   UNL     1      42.653  23.995  20.413  0.00  0.00    +0.403 HD
ENDBRANCH   3   4
TORSDOF 2
ENDMDL
MODEL 7
REMARK VINA RESULT:      -6.3      3.623      8.145
REMARK  Name = ZINC95486199
REMARK  7 active torsions:
REMARK  status: ('A' for Active; 'I' for Inactive)
REMARK    1  A    between atoms: C1_1  and  C2_2
REMARK    2  A    between atoms: C3_3  and  O3_33
REMARK    3  A    between atoms: C11_12  and  C29_32
REMARK    4  A    between atoms: C14_15  and  C28_31
REMARK    5  A    between atoms: C15_16  and  C27_30
REMARK    6  A    between atoms: C18_19  and  C25_27
REMARK    7  A    between atoms: C25_27  and  C26_29
REMARK                            x       y       z     vdW  Elec       q    Type
REMARK                         _______ _______ _______ _____ _____    ______ ____
ROOT
ATOM      1  C   UNL     1      50.657  13.283  14.789  0.00  0.00    +0.108 C 
ATOM      2  C   UNL     1      49.441  12.863  15.573  0.00  0.00    -0.073 C 
ATOM      3  C   UNL     1      48.805  11.702  15.269  0.00  0.00    +0.014 C 
ATOM      6  C   UNL     1      47.664  11.312  16.013  0.00  0.00    +0.380 C 
ATOM      7  C   UNL     1      47.204  12.114  17.074  0.00  0.00    -0.108 C 
ATOM      8  C   UNL     1      47.840  13.276  17.385  0.00  0.00    +0.030 C 
ATOM      9  C   UNL     1      47.336  14.100  18.531  0.00  0.00    -0.003 C 
ATOM     10  C   UNL     1      47.515  13.289  19.817  0.00  0.00    +0.065 C 
ATOM     11  C   UNL     1      45.843  14.391  18.373  0.00  0.00    +0.053 C 
ATOM     12  C   UNL     1      45.364  15.255  19.544  0.00  0.00    +0.036 C 
ATOM     13  C   UNL     1      46.102  16.591  19.531  0.00  0.00    -0.041 C 
ATOM     14  C   UNL     1      45.910  17.261  18.170  0.00  0.00    +0.028 C 
ATOM     15  C   UNL     1      47.614  16.341  19.770  0.00  0.00    -0.020 C 
ATOM     16  C   UNL     1      47.840  15.723  21.151  0.00  0.00    +0.050 C 
ATOM     17  C   UNL     1      48.350  17.677  19.656  0.00  0.00    +0.027 C 
ATOM     18  C   UNL     1      47.838  18.616  20.751  0.00  0.00    +0.042 C 
ATOM     19  C   UNL     1      46.333  18.842  20.592  0.00  0.00    -0.096 C 
ATOM     23  C   UNL     1      45.848  19.754  21.722  0.00  0.00    +0.048 C 
ATOM     24  C   UNL     1      44.336  20.086  21.487  0.00  0.00    +0.056 C 
ATOM     25  C   UNL     1      43.581  18.779  21.383  0.00  0.00    -0.105 C 
ATOM     26  C   UNL     1      42.530  18.549  22.130  0.00  0.00    -0.016 C 
ATOM     27  C   UNL     1      44.072  17.747  20.394  0.00  0.00    +0.078 C 
ATOM     28  C   UNL     1      45.571  17.515  20.627  0.00  0.00    +0.032 C 
ATOM     29  C   UNL     1      48.094  15.386  18.697  0.00  0.00    -0.009 C 
ATOM     30  C   UNL     1      49.143  15.713  17.941  0.00  0.00    -0.046 C 
ATOM     31  C   UNL     1      49.614  14.880  16.919  0.00  0.00    +0.150 C 
ATOM     32  O   UNL     1      47.078  10.277  15.731  0.00  0.00    -0.488 OA
ATOM     33  C   UNL     1      48.965  13.677  16.630  0.00  0.00    -0.107 C 
ENDROOT
BRANCH  19  20
ATOM     20  C   UNL     1      46.062  19.501  19.264  0.00  0.00    +0.372 C 
ATOM     21  C   UNL     1      46.985  20.580  18.757  0.00  0.00    +0.052 C 
ATOM     22  O   UNL     1      45.106  19.167  18.607  0.00  0.00    -0.446 OA
ENDBRANCH  19  20
BRANCH   3   4
ATOM      4  O   UNL     1      49.261  10.919  14.256  0.00  0.00    -0.464 OA
ATOM      5  H   UNL     1      49.922  10.269  14.529  0.00  0.00    +0.403 HD
ENDBRANCH   3   4
TORSDOF 2
ENDMDL
MODEL 8
REMARK VINA RESULT:      -6.2      4.449      9.167
REMARK  Name = ZINC95486199
REMARK  7 active torsions:
REMARK  status: ('A' for Active; 'I' for Inactive)
REMARK    1  A    between atoms: C1_1  and  C2_2
REMARK    2  A    between atoms: C3_3  and  O3_33
REMARK    3  A    between atoms: C11_12  and  C29_32
REMARK    4  A    between atoms: C14_15  and  C28_31
REMARK    5  A    between atoms: C15_16  and  C27_30
REMARK    6  A    between atoms: C18_19  and  C25_27
REMARK    7  A    between atoms: C25_27  and  C26_29
REMARK                            x       y       z     vdW  Elec       q    Type
REMARK                         _______ _______ _______ _____ _____    ______ ____
ROOT
ATOM      1  C   UNL     1      51.991  10.318  16.933  0.00  0.00    +0.108 C 
ATOM      2  C   UNL     1      51.061  11.228  16.174  0.00  0.00    -0.073 C 
ATOM      3  C   UNL     1      51.294  11.498  14.863  0.00  0.00    +0.014 C 
ATOM      6  C   UNL     1      50.414  12.352  14.155  0.00  0.00    +0.380 C 
ATOM      7  C   UNL     1      49.291  12.902  14.801  0.00  0.00    -0.108 C 
ATOM      8  C   UNL     1      49.049  12.632  16.112  0.00  0.00    +0.030 C 
ATOM      9  C   UNL     1      47.837  13.219  16.767  0.00  0.00    -0.003 C 
ATOM     10  C   UNL     1      46.597  12.630  16.091  0.00  0.00    +0.065 C 
ATOM     11  C   UNL     1      47.795  14.735  16.568  0.00  0.00    +0.053 C 
ATOM     12  C   UNL     1      46.560  15.308  17.270  0.00  0.00    +0.036 C 
ATOM     13  C   UNL     1      46.651  15.039  18.770  0.00  0.00    -0.041 C 
ATOM     14  C   UNL     1      47.966  15.605  19.307  0.00  0.00    +0.028 C 
ATOM     15  C   UNL     1      46.614  13.508  19.017  0.00  0.00    -0.020 C 
ATOM     16  C   UNL     1      45.283  12.923  18.541  0.00  0.00    +0.050 C 
ATOM     17  C   UNL     1      46.805  13.253  20.512  0.00  0.00    +0.027 C 
ATOM     18  C   UNL     1      45.640  13.891  21.272  0.00  0.00    +0.042 C 
ATOM     19  C   UNL     1      45.598  15.398  21.008  0.00  0.00    -0.096 C 
ATOM     23  C   UNL     1      44.402  15.997  21.752  0.00  0.00    +0.048 C 
ATOM     24  C   UNL     1      44.434  17.553  21.584  0.00  0.00    +0.056 C 
ATOM     25  C   UNL     1      44.455  17.864  20.104  0.00  0.00    -0.105 C 
ATOM     26  C   UNL     1      43.581  18.683  19.575  0.00  0.00    -0.016 C 
ATOM     27  C   UNL     1      45.514  17.202  19.251  0.00  0.00    +0.078 C 
ATOM     28  C   UNL     1      45.482  15.690  19.510  0.00  0.00    +0.032 C 
ATOM     29  C   UNL     1      47.753  12.892  18.231  0.00  0.00    -0.009 C 
ATOM     30  C   UNL     1      48.635  12.106  18.850  0.00  0.00    -0.046 C 
ATOM     31  C   UNL     1      49.722  11.530  18.179  0.00  0.00    +0.150 C 
ATOM     32  O   UNL     1      50.631  12.612  12.980  0.00  0.00    -0.488 OA
ATOM     33  C   UNL     1      49.940  11.797  16.826  0.00  0.00    -0.107 C 
ENDROOT
BRANCH  19  20
ATOM     20  C   UNL     1      46.870  16.030  21.511  0.00  0.00    +0.372 C 
ATOM     21  C   UNL     1      47.736  15.296  22.502  0.00  0.00    +0.052 C 
ATOM     22  O   UNL     1      47.195  17.125  21.120  0.00  0.00    -0.446 OA
ENDBRANCH  19  20
BRANCH   3   4
ATOM      4  O   UNL     1      52.369  10.951  14.235  0.00  0.00    -0.464 OA
ATOM      5  H   UNL     1      52.403   9.987  14.283  0.00  0.00    +0.403 HD
ENDBRANCH   3   4
TORSDOF 2
ENDMDL
MODEL 9
REMARK VINA RESULT:      -6.1      3.119      5.556
REMARK  Name = ZINC95486199
REMARK  7 active torsions:
REMARK  status: ('A' for Active; 'I' for Inactive)
REMARK    1  A    between atoms: C1_1  and  C2_2
REMARK    2  A    between atoms: C3_3  and  O3_33
REMARK    3  A    between atoms: C11_12  and  C29_32
REMARK    4  A    between atoms: C14_15  and  C28_31
REMARK    5  A    between atoms: C15_16  and  C27_30
REMARK    6  A    between atoms: C18_19  and  C25_27
REMARK    7  A    between atoms: C25_27  and  C26_29
REMARK                            x       y       z     vdW  Elec       q    Type
REMARK                         _______ _______ _______ _____ _____    ______ ____
ROOT
ATOM      1  C   UNL     1      44.186  20.022  18.739  0.00  0.00    +0.108 C 
ATOM      2  C   UNL     1      44.279  18.782  19.590  0.00  0.00    -0.073 C 
ATOM      3  C   UNL     1      43.502  18.659  20.697  0.00  0.00    +0.014 C 
ATOM      6  C   UNL     1      43.592  17.489  21.490  0.00  0.00    +0.380 C 
ATOM      7  C   UNL     1      44.466  16.450  21.121  0.00  0.00    -0.108 C 
ATOM      8  C   UNL     1      45.244  16.566  20.010  0.00  0.00    +0.030 C 
ATOM      9  C   UNL     1      46.153  15.436  19.634  0.00  0.00    -0.003 C 
ATOM     10  C   UNL     1      45.288  14.223  19.287  0.00  0.00    +0.065 C 
ATOM     11  C   UNL     1      47.046  15.045  20.812  0.00  0.00    +0.053 C 
ATOM     12  C   UNL     1      47.981  13.907  20.390  0.00  0.00    +0.036 C 
ATOM     13  C   UNL     1      48.887  14.382  19.257  0.00  0.00    -0.041 C 
ATOM     14  C   UNL     1      49.634  15.641  19.701  0.00  0.00    +0.028 C 
ATOM     15  C   UNL     1      48.021  14.712  18.013  0.00  0.00    -0.020 C 
ATOM     16  C   UNL     1      47.307  13.455  17.513  0.00  0.00    +0.050 C 
ATOM     17  C   UNL     1      48.932  15.278  16.924  0.00  0.00    +0.027 C 
ATOM     18  C   UNL     1      49.952  14.207  16.530  0.00  0.00    +0.042 C 
ATOM     19  C   UNL     1      50.790  13.804  17.744  0.00  0.00    -0.096 C 
ATOM     23  C   UNL     1      51.773  12.707  17.324  0.00  0.00    +0.048 C 
ATOM     24  C   UNL     1      52.714  12.385  18.533  0.00  0.00    +0.056 C 
ATOM     25  C   UNL     1      51.847  12.013  19.715  0.00  0.00    -0.105 C 
ATOM     26  C   UNL     1      52.044  10.896  20.369  0.00  0.00    -0.016 C 
ATOM     27  C   UNL     1      50.746  12.967  20.121  0.00  0.00    +0.078 C 
ATOM     28  C   UNL     1      49.901  13.301  18.884  0.00  0.00    +0.032 C 
ATOM     29  C   UNL     1      46.999  15.748  18.432  0.00  0.00    -0.009 C 
ATOM     30  C   UNL     1      46.890  16.886  17.744  0.00  0.00    -0.046 C 
ATOM     31  C   UNL     1      45.981  17.890  18.101  0.00  0.00    +0.150 C 
ATOM     32  O   UNL     1      42.907  17.382  22.498  0.00  0.00    -0.488 OA
ATOM     33  C   UNL     1      45.171  17.743  19.230  0.00  0.00    -0.107 C 
ENDROOT
BRANCH  19  20
ATOM     20  C   UNL     1      51.558  15.000  18.244  0.00  0.00    +0.372 C 
ATOM     21  C   UNL     1      51.853  16.148  17.312  0.00  0.00    +0.052 C 
ATOM     22  O   UNL     1      51.937  15.040  19.389  0.00  0.00    -0.446 OA
ENDBRANCH  19  20
BRANCH   3   4
ATOM      4  O   UNL     1      42.644  19.655  21.043  0.00  0.00    -0.464 OA
ATOM      5  H   UNL     1      43.042  20.344  21.591  0.00  0.00    +0.403 HD
ENDBRANCH   3   4
TORSDOF 2
ENDMDL
