MODEL 1
REMARK VINA RESULT:      -6.4      0.000      0.000
REMARK  Name = ZINC95486218
REMARK  11 active torsions:
REMARK  status: ('A' for Active; 'I' for Inactive)
REMARK    1  A    between atoms: C1_1  and  C2_2
REMARK    2  A    between atoms: C8_8  and  O4_29
REMARK    3  A    between atoms: C10_10  and  O3_28
REMARK    4  A    between atoms: C11_11  and  C12_12
REMARK    5  A    between atoms: C13_13  and  O2_26
REMARK    6  A    between atoms: C17_17  and  C23_25
REMARK    7  A    between atoms: C18_19  and  C22_24
REMARK    8  A    between atoms: C20_21  and  O1_22
REMARK    9  A    between atoms: O1_22  and  C21_23
REMARK   10  A    between atoms: O2_26  and  C24_27
REMARK   11  A    between atoms: O4_29  and  C25_30
REMARK                            x       y       z     vdW  Elec       q    Type
REMARK                         _______ _______ _______ _____ _____    ______ ____
ROOT
ATOM     16  C   UNL     1      46.924  19.635  20.234  0.00  0.00    -0.049 A 
ATOM     17  C   UNL     1      47.526  20.765  20.820  0.00  0.00    +0.232 A 
ATOM     20  C   UNL     1      48.797  21.134  20.486  0.00  0.00    -0.074 A 
ATOM     21  C   UNL     1      49.519  20.383  19.548  0.00  0.00    +0.070 A 
ATOM     22  C   UNL     1      50.832  20.725  19.173  0.00  0.00    +0.071 A 
ATOM     23  C   UNL     1      51.473  19.948  18.256  0.00  0.00    +0.111 A 
ATOM     24  C   UNL     1      52.878  20.307  17.847  0.00  0.00    +0.175 C 
ATOM     25  N   UNL     1      50.894  18.887  17.711  0.00  0.00    -0.468 N 
ATOM     26  H   UNL     1      51.394  18.367  17.061  0.00  0.00    +0.443 HD
ATOM     27  C   UNL     1      49.673  18.510  18.012  0.00  0.00    +0.266 A 
ATOM     28  C   UNL     1      49.076  17.292  17.354  0.00  0.00    +0.199 C 
ATOM     29  C   UNL     1      48.926  19.241  18.948  0.00  0.00    -0.151 A 
ATOM     30  C   UNL     1      47.616  18.869  19.306  0.00  0.00    +0.203 A 
ENDROOT
BRANCH  16  15
ATOM      1  C   UNL     1      46.520  17.643  22.276  0.00  0.00    +0.092 C 
ATOM      2  C   UNL     1      45.334  18.288  21.607  0.00  0.00    -0.042 A 
ATOM      3  C   UNL     1      44.078  17.928  21.977  0.00  0.00    +0.017 A 
ATOM      4  C   UNL     1      42.962  18.523  21.361  0.00  0.00    +0.012 A 
ATOM      5  C   UNL     1      41.654  18.164  21.730  0.00  0.00    -0.022 A 
ATOM      6  C   UNL     1      40.588  18.753  21.121  0.00  0.00    +0.076 A 
ATOM      7  C   UNL     1      40.769  19.713  20.129  0.00  0.00    -0.092 A 
ATOM      8  C   UNL     1      42.033  20.092  19.738  0.00  0.00    +0.159 A 
ATOM     11  C   UNL     1      43.156  19.499  20.353  0.00  0.00    -0.104 A 
ATOM     12  C   UNL     1      44.463  19.861  19.981  0.00  0.00    +0.190 A 
ATOM     15  C   UNL     1      45.543  19.257  20.614  0.00  0.00    -0.108 A 
BRANCH   8   9
ATOM      9  O   UNL     1      42.199  21.029  18.769  0.00  0.00    -0.297 OA
ATOM     10  C   UNL     1      41.134  21.962  18.580  0.00  0.00    +0.245 C 
ENDBRANCH   8   9
BRANCH  12  13
ATOM     13  O   UNL     1      44.668  20.794  19.017  0.00  0.00    -0.475 OA
ATOM     14  H   UNL     1      45.367  20.564  18.390  0.00  0.00    +0.392 HD
ENDBRANCH  12  13
ENDBRANCH  16  15
BRANCH  17  18
ATOM     18  O   UNL     1      46.832  21.497  21.730  0.00  0.00    -0.285 OA
ATOM     19  C   UNL     1      46.565  22.860  21.397  0.00  0.00    +0.270 C 
ENDBRANCH  17  18
BRANCH  30  31
ATOM     31  O   UNL     1      47.036  17.778  18.746  0.00  0.00    -0.314 OA
ATOM     32  C   UNL     1      46.168  18.004  17.633  0.00  0.00    +0.257 C 
ENDBRANCH  30  31
TORSDOF 5
ENDMDL
MODEL 2
REMARK VINA RESULT:      -6.3      2.698      7.396
REMARK  Name = ZINC95486218
REMARK  11 active torsions:
REMARK  status: ('A' for Active; 'I' for Inactive)
REMARK    1  A    between atoms: C1_1  and  C2_2
REMARK    2  A    between atoms: C8_8  and  O4_29
REMARK    3  A    between atoms: C10_10  and  O3_28
REMARK    4  A    between atoms: C11_11  and  C12_12
REMARK    5  A    between atoms: C13_13  and  O2_26
REMARK    6  A    between atoms: C17_17  and  C23_25
REMARK    7  A    between atoms: C18_19  and  C22_24
REMARK    8  A    between atoms: C20_21  and  O1_22
REMARK    9  A    between atoms: O1_22  and  C21_23
REMARK   10  A    between atoms: O2_26  and  C24_27
REMARK   11  A    between atoms: O4_29  and  C25_30
REMARK                            x       y       z     vdW  Elec       q    Type
REMARK                         _______ _______ _______ _____ _____    ______ ____
ROOT
ATOM     16  C   UNL     1      46.187  20.111  19.884  0.00  0.00    -0.049 A 
ATOM     17  C   UNL     1      45.583  18.896  19.507  0.00  0.00    +0.232 A 
ATOM     20  C   UNL     1      44.270  18.852  19.138  0.00  0.00    -0.074 A 
ATOM     21  C   UNL     1      43.506  20.027  19.130  0.00  0.00    +0.070 A 
ATOM     22  C   UNL     1      42.149  20.030  18.758  0.00  0.00    +0.071 A 
ATOM     23  C   UNL     1      41.469  21.210  18.774  0.00  0.00    +0.111 A 
ATOM     24  C   UNL     1      40.016  21.222  18.375  0.00  0.00    +0.175 C 
ATOM     25  N   UNL     1      42.050  22.347  19.130  0.00  0.00    -0.468 N 
ATOM     26  H   UNL     1      41.521  23.161  19.124  0.00  0.00    +0.443 HD
ATOM     27  C   UNL     1      43.311  22.419  19.489  0.00  0.00    +0.266 A 
ATOM     28  C   UNL     1      43.908  23.746  19.881  0.00  0.00    +0.199 C 
ATOM     29  C   UNL     1      44.101  21.260  19.506  0.00  0.00    -0.151 A 
ATOM     30  C   UNL     1      45.455  21.290  19.890  0.00  0.00    +0.203 A 
ENDROOT
BRANCH  16  15
ATOM      1  C   UNL     1      46.935  19.180  22.505  0.00  0.00    +0.092 C 
ATOM      2  C   UNL     1      47.991  19.680  21.554  0.00  0.00    -0.042 A 
ATOM      3  C   UNL     1      49.293  19.683  21.940  0.00  0.00    +0.017 A 
ATOM      4  C   UNL     1      50.289  20.147  21.060  0.00  0.00    +0.012 A 
ATOM      5  C   UNL     1      51.642  20.158  21.441  0.00  0.00    -0.022 A 
ATOM      6  C   UNL     1      52.589  20.611  20.574  0.00  0.00    +0.076 A 
ATOM      7  C   UNL     1      52.241  21.069  19.306  0.00  0.00    -0.092 A 
ATOM      8  C   UNL     1      50.927  21.075  18.895  0.00  0.00    +0.159 A 
ATOM     11  C   UNL     1      49.925  20.611  19.772  0.00  0.00    -0.104 A 
ATOM     12  C   UNL     1      48.572  20.601  19.388  0.00  0.00    +0.190 A 
ATOM     15  C   UNL     1      47.615  20.131  20.280  0.00  0.00    -0.108 A 
BRANCH   8   9
ATOM      9  O   UNL     1      50.598  21.525  17.656  0.00  0.00    -0.297 OA
ATOM     10  C   UNL     1      51.461  21.151  16.581  0.00  0.00    +0.245 C 
ENDBRANCH   8   9
BRANCH  12  13
ATOM     13  O   UNL     1      48.205  21.042  18.158  0.00  0.00    -0.475 OA
ATOM     14  H   UNL     1      47.293  21.359  18.110  0.00  0.00    +0.392 HD
ENDBRANCH  12  13
ENDBRANCH  16  15
BRANCH  17  18
ATOM     18  O   UNL     1      46.318  17.753  19.513  0.00  0.00    -0.285 OA
ATOM     19  C   UNL     1      45.598  16.521  19.449  0.00  0.00    +0.270 C 
ENDBRANCH  17  18
BRANCH  30  31
ATOM     31  O   UNL     1      46.038  22.459  20.258  0.00  0.00    -0.314 OA
ATOM     32  C   UNL     1      46.207  22.688  21.658  0.00  0.00    +0.257 C 
ENDBRANCH  30  31
TORSDOF 5
ENDMDL
MODEL 3
REMARK VINA RESULT:      -6.1      2.600      5.537
REMARK  Name = ZINC95486218
REMARK  11 active torsions:
REMARK  status: ('A' for Active; 'I' for Inactive)
REMARK    1  A    between atoms: C1_1  and  C2_2
REMARK    2  A    between atoms: C8_8  and  O4_29
REMARK    3  A    between atoms: C10_10  and  O3_28
REMARK    4  A    between atoms: C11_11  and  C12_12
REMARK    5  A    between atoms: C13_13  and  O2_26
REMARK    6  A    between atoms: C17_17  and  C23_25
REMARK    7  A    between atoms: C18_19  and  C22_24
REMARK    8  A    between atoms: C20_21  and  O1_22
REMARK    9  A    between atoms: O1_22  and  C21_23
REMARK   10  A    between atoms: O2_26  and  C24_27
REMARK   11  A    between atoms: O4_29  and  C25_30
REMARK                            x       y       z     vdW  Elec       q    Type
REMARK                         _______ _______ _______ _____ _____    ______ ____
ROOT
ATOM     16  C   UNL     1      45.108  19.611  20.301  0.00  0.00    -0.049 A 
ATOM     17  C   UNL     1      44.118  20.324  19.597  0.00  0.00    +0.232 A 
ATOM     20  C   UNL     1      44.101  21.689  19.604  0.00  0.00    -0.074 A 
ATOM     21  C   UNL     1      45.078  22.397  20.318  0.00  0.00    +0.070 A 
ATOM     22  C   UNL     1      45.100  23.804  20.355  0.00  0.00    +0.071 A 
ATOM     23  C   UNL     1      46.080  24.424  21.070  0.00  0.00    +0.111 A 
ATOM     24  C   UNL     1      46.112  25.930  21.113  0.00  0.00    +0.175 C 
ATOM     25  N   UNL     1      47.006  23.740  21.727  0.00  0.00    -0.468 N 
ATOM     26  H   UNL     1      47.683  24.230  22.221  0.00  0.00    +0.443 HD
ATOM     27  C   UNL     1      47.047  22.427  21.737  0.00  0.00    +0.266 A 
ATOM     28  C   UNL     1      48.129  21.712  22.505  0.00  0.00    +0.199 C 
ATOM     29  C   UNL     1      46.083  21.692  21.032  0.00  0.00    -0.151 A 
ATOM     30  C   UNL     1      46.085  20.284  21.020  0.00  0.00    +0.203 A 
ENDROOT
BRANCH  16  15
ATOM      1  C   UNL     1      43.830  18.170  22.443  0.00  0.00    +0.092 C 
ATOM      2  C   UNL     1      44.484  17.417  21.314  0.00  0.00    -0.042 A 
ATOM      3  C   UNL     1      44.461  16.059  21.312  0.00  0.00    +0.017 A 
ATOM      4  C   UNL     1      45.068  15.344  20.263  0.00  0.00    +0.012 A 
ATOM      5  C   UNL     1      45.056  13.939  20.243  0.00  0.00    -0.022 A 
ATOM      6  C   UNL     1      45.648  13.267  19.218  0.00  0.00    +0.076 A 
ATOM      7  C   UNL     1      46.275  13.951  18.179  0.00  0.00    -0.092 A 
ATOM      8  C   UNL     1      46.310  15.326  18.162  0.00  0.00    +0.159 A 
ATOM     11  C   UNL     1      45.703  16.049  19.210  0.00  0.00    -0.104 A 
ATOM     12  C   UNL     1      45.717  17.455  19.227  0.00  0.00    +0.190 A 
ATOM     15  C   UNL     1      45.104  18.129  20.276  0.00  0.00    -0.108 A 
BRANCH   8   9
ATOM      9  O   UNL     1      46.923  15.984  17.144  0.00  0.00    -0.297 OA
ATOM     10  C   UNL     1      48.307  15.698  16.928  0.00  0.00    +0.245 C 
ENDBRANCH   8   9
BRANCH  12  13
ATOM     13  O   UNL     1      46.320  18.146  18.227  0.00  0.00    -0.475 OA
ATOM     14  H   UNL     1      46.199  19.104  18.283  0.00  0.00    +0.392 HD
ENDBRANCH  12  13
ENDBRANCH  16  15
BRANCH  17  18
ATOM     18  O   UNL     1      43.168  19.645  18.904  0.00  0.00    -0.285 OA
ATOM     19  C   UNL     1      41.828  19.724  19.394  0.00  0.00    +0.270 C 
ENDBRANCH  17  18
BRANCH  30  31
ATOM     31  O   UNL     1      47.035  19.594  21.701  0.00  0.00    -0.314 OA
ATOM     32  C   UNL     1      48.141  19.097  20.946  0.00  0.00    +0.257 C 
ENDBRANCH  30  31
TORSDOF 5
ENDMDL
MODEL 4
REMARK VINA RESULT:      -5.7      3.352      5.449
REMARK  Name = ZINC95486218
REMARK  11 active torsions:
REMARK  status: ('A' for Active; 'I' for Inactive)
REMARK    1  A    between atoms: C1_1  and  C2_2
REMARK    2  A    between atoms: C8_8  and  O4_29
REMARK    3  A    between atoms: C10_10  and  O3_28
REMARK    4  A    between atoms: C11_11  and  C12_12
REMARK    5  A    between atoms: C13_13  and  O2_26
REMARK    6  A    between atoms: C17_17  and  C23_25
REMARK    7  A    between atoms: C18_19  and  C22_24
REMARK    8  A    between atoms: C20_21  and  O1_22
REMARK    9  A    between atoms: O1_22  and  C21_23
REMARK   10  A    between atoms: O2_26  and  C24_27
REMARK   11  A    between atoms: O4_29  and  C25_30
REMARK                            x       y       z     vdW  Elec       q    Type
REMARK                         _______ _______ _______ _____ _____    ______ ____
ROOT
ATOM     16  C   UNL     1      47.133  14.772  18.365  0.00  0.00    -0.049 A 
ATOM     17  C   UNL     1      46.700  13.727  17.526  0.00  0.00    +0.232 A 
ATOM     20  C   UNL     1      47.532  13.194  16.585  0.00  0.00    -0.074 A 
ATOM     21  C   UNL     1      48.837  13.687  16.446  0.00  0.00    +0.070 A 
ATOM     22  C   UNL     1      49.730  13.169  15.490  0.00  0.00    +0.071 A 
ATOM     23  C   UNL     1      50.983  13.698  15.411  0.00  0.00    +0.111 A 
ATOM     24  C   UNL     1      51.947  13.148  14.391  0.00  0.00    +0.175 C 
ATOM     25  N   UNL     1      51.379  14.682  16.207  0.00  0.00    -0.468 N 
ATOM     26  H   UNL     1      52.282  15.023  16.111  0.00  0.00    +0.443 HD
ATOM     27  C   UNL     1      50.599  15.213  17.122  0.00  0.00    +0.266 A 
ATOM     28  C   UNL     1      51.114  16.329  17.994  0.00  0.00    +0.199 C 
ATOM     29  C   UNL     1      49.289  14.740  17.285  0.00  0.00    -0.151 A 
ATOM     30  C   UNL     1      48.417  15.285  18.247  0.00  0.00    +0.203 A 
ENDROOT
BRANCH  16  15
ATOM      1  C   UNL     1      46.647  13.301  20.794  0.00  0.00    +0.092 C 
ATOM      2  C   UNL     1      45.965  14.625  20.565  0.00  0.00    -0.042 A 
ATOM      3  C   UNL     1      45.127  15.119  21.513  0.00  0.00    +0.017 A 
ATOM      4  C   UNL     1      44.484  16.354  21.312  0.00  0.00    +0.012 A 
ATOM      5  C   UNL     1      43.613  16.882  22.281  0.00  0.00    -0.022 A 
ATOM      6  C   UNL     1      43.001  18.080  22.066  0.00  0.00    +0.076 A 
ATOM      7  C   UNL     1      43.223  18.799  20.894  0.00  0.00    -0.092 A 
ATOM      8  C   UNL     1      44.068  18.316  19.921  0.00  0.00    +0.159 A 
ATOM     11  C   UNL     1      44.715  17.078  20.116  0.00  0.00    -0.104 A 
ATOM     12  C   UNL     1      45.587  16.553  19.145  0.00  0.00    +0.190 A 
ATOM     15  C   UNL     1      46.209  15.333  19.378  0.00  0.00    -0.108 A 
BRANCH   8   9
ATOM      9  O   UNL     1      44.276  19.025  18.781  0.00  0.00    -0.297 OA
ATOM     10  C   UNL     1      44.595  20.410  18.928  0.00  0.00    +0.245 C 
ENDBRANCH   8   9
BRANCH  12  13
ATOM     13  O   UNL     1      45.821  17.233  17.994  0.00  0.00    -0.475 OA
ATOM     14  H   UNL     1      46.386  16.761  17.367  0.00  0.00    +0.392 HD
ENDBRANCH  12  13
ENDBRANCH  16  15
BRANCH  17  18
ATOM     18  O   UNL     1      45.437  13.245  17.655  0.00  0.00    -0.285 OA
ATOM     19  C   UNL     1      45.130  12.038  16.954  0.00  0.00    +0.270 C 
ENDBRANCH  17  18
BRANCH  30  31
ATOM     31  O   UNL     1      48.831  16.295  19.053  0.00  0.00    -0.314 OA
ATOM     32  C   UNL     1      49.213  15.946  20.385  0.00  0.00    +0.257 C 
ENDBRANCH  30  31
TORSDOF 5
ENDMDL
MODEL 5
REMARK VINA RESULT:      -5.7      2.439      7.575
REMARK  Name = ZINC95486218
REMARK  11 active torsions:
REMARK  status: ('A' for Active; 'I' for Inactive)
REMARK    1  A    between atoms: C1_1  and  C2_2
REMARK    2  A    between atoms: C8_8  and  O4_29
REMARK    3  A    between atoms: C10_10  and  O3_28
REMARK    4  A    between atoms: C11_11  and  C12_12
REMARK    5  A    between atoms: C13_13  and  O2_26
REMARK    6  A    between atoms: C17_17  and  C23_25
REMARK    7  A    between atoms: C18_19  and  C22_24
REMARK    8  A    between atoms: C20_21  and  O1_22
REMARK    9  A    between atoms: O1_22  and  C21_23
REMARK   10  A    between atoms: O2_26  and  C24_27
REMARK   11  A    between atoms: O4_29  and  C25_30
REMARK                            x       y       z     vdW  Elec       q    Type
REMARK                         _______ _______ _______ _____ _____    ______ ____
ROOT
ATOM     16  C   UNL     1      46.265  18.069  19.587  0.00  0.00    -0.049 A 
ATOM     17  C   UNL     1      46.044  17.077  20.562  0.00  0.00    +0.232 A 
ATOM     20  C   UNL     1      44.871  17.027  21.257  0.00  0.00    -0.074 A 
ATOM     21  C   UNL     1      43.867  17.971  21.002  0.00  0.00    +0.070 A 
ATOM     22  C   UNL     1      42.641  17.959  21.694  0.00  0.00    +0.071 A 
ATOM     23  C   UNL     1      41.712  18.909  21.394  0.00  0.00    +0.111 A 
ATOM     24  C   UNL     1      40.396  18.902  22.129  0.00  0.00    +0.175 C 
ATOM     25  N   UNL     1      41.931  19.837  20.473  0.00  0.00    -0.468 N 
ATOM     26  H   UNL     1      41.236  20.490  20.297  0.00  0.00    +0.443 HD
ATOM     27  C   UNL     1      43.050  19.908  19.789  0.00  0.00    +0.266 A 
ATOM     28  C   UNL     1      43.234  20.990  18.755  0.00  0.00    +0.199 C 
ATOM     29  C   UNL     1      44.073  18.977  20.021  0.00  0.00    -0.151 A 
ATOM     30  C   UNL     1      45.291  19.020  19.317  0.00  0.00    +0.203 A 
ENDROOT
BRANCH  16  15
ATOM      1  C   UNL     1      46.483  16.651  17.088  0.00  0.00    +0.092 C 
ATOM      2  C   UNL     1      47.666  17.413  17.628  0.00  0.00    -0.042 A 
ATOM      3  C   UNL     1      48.829  17.430  16.927  0.00  0.00    +0.017 A 
ATOM      4  C   UNL     1      49.940  18.139  17.420  0.00  0.00    +0.012 A 
ATOM      5  C   UNL     1      51.152  18.169  16.709  0.00  0.00    -0.022 A 
ATOM      6  C   UNL     1      52.215  18.861  17.204  0.00  0.00    +0.076 A 
ATOM      7  C   UNL     1      52.125  19.546  18.413  0.00  0.00    -0.092 A 
ATOM      8  C   UNL     1      50.956  19.541  19.140  0.00  0.00    +0.159 A 
ATOM     11  C   UNL     1      49.838  18.833  18.651  0.00  0.00    -0.104 A 
ATOM     12  C   UNL     1      48.627  18.806  19.364  0.00  0.00    +0.190 A 
ATOM     15  C   UNL     1      47.548  18.100  18.846  0.00  0.00    -0.108 A 
BRANCH   8   9
ATOM      9  O   UNL     1      50.878  20.212  20.318  0.00  0.00    -0.297 OA
ATOM     10  C   UNL     1      51.919  21.150  20.600  0.00  0.00    +0.245 C 
ENDBRANCH   8   9
BRANCH  12  13
ATOM     13  O   UNL     1      48.511  19.465  20.545  0.00  0.00    -0.475 OA
ATOM     14  H   UNL     1      48.907  20.347  20.543  0.00  0.00    +0.392 HD
ENDBRANCH  12  13
ENDBRANCH  16  15
BRANCH  17  18
ATOM     18  O   UNL     1      47.013  16.159  20.814  0.00  0.00    -0.285 OA
ATOM     19  C   UNL     1      46.753  14.814  20.407  0.00  0.00    +0.270 C 
ENDBRANCH  17  18
BRANCH  30  31
ATOM     31  O   UNL     1      45.507  19.977  18.380  0.00  0.00    -0.314 OA
ATOM     32  C   UNL     1      46.212  21.148  18.799  0.00  0.00    +0.257 C 
ENDBRANCH  30  31
TORSDOF 5
ENDMDL
MODEL 6
REMARK VINA RESULT:      -5.5      3.248      4.733
REMARK  Name = ZINC95486218
REMARK  11 active torsions:
REMARK  status: ('A' for Active; 'I' for Inactive)
REMARK    1  A    between atoms: C1_1  and  C2_2
REMARK    2  A    between atoms: C8_8  and  O4_29
REMARK    3  A    between atoms: C10_10  and  O3_28
REMARK    4  A    between atoms: C11_11  and  C12_12
REMARK    5  A    between atoms: C13_13  and  O2_26
REMARK    6  A    between atoms: C17_17  and  C23_25
REMARK    7  A    between atoms: C18_19  and  C22_24
REMARK    8  A    between atoms: C20_21  and  O1_22
REMARK    9  A    between atoms: O1_22  and  C21_23
REMARK   10  A    between atoms: O2_26  and  C24_27
REMARK   11  A    between atoms: O4_29  and  C25_30
REMARK                            x       y       z     vdW  Elec       q    Type
REMARK                         _______ _______ _______ _____ _____    ______ ____
ROOT
ATOM     16  C   UNL     1      47.698  15.391  18.967  0.00  0.00    -0.049 A 
ATOM     17  C   UNL     1      48.991  15.862  19.269  0.00  0.00    +0.232 A 
ATOM     20  C   UNL     1      50.062  15.509  18.499  0.00  0.00    -0.074 A 
ATOM     21  C   UNL     1      49.880  14.670  17.391  0.00  0.00    +0.070 A 
ATOM     22  C   UNL     1      50.954  14.280  16.569  0.00  0.00    +0.071 A 
ATOM     23  C   UNL     1      50.703  13.461  15.510  0.00  0.00    +0.111 A 
ATOM     24  C   UNL     1      51.847  13.040  14.624  0.00  0.00    +0.175 C 
ATOM     25  N   UNL     1      49.481  13.026  15.236  0.00  0.00    -0.468 N 
ATOM     26  H   UNL     1      49.355  12.445  14.469  0.00  0.00    +0.443 HD
ATOM     27  C   UNL     1      48.433  13.349  15.959  0.00  0.00    +0.266 A 
ATOM     28  C   UNL     1      47.071  12.819  15.591  0.00  0.00    +0.199 C 
ATOM     29  C   UNL     1      48.583  14.188  17.073  0.00  0.00    -0.151 A 
ATOM     30  C   UNL     1      47.489  14.555  17.879  0.00  0.00    +0.203 A 
ENDROOT
BRANCH  16  15
ATOM      1  C   UNL     1      47.087  13.843  21.318  0.00  0.00    +0.092 C 
ATOM      2  C   UNL     1      46.246  15.043  20.966  0.00  0.00    -0.042 A 
ATOM      3  C   UNL     1      45.206  15.390  21.767  0.00  0.00    +0.017 A 
ATOM      4  C   UNL     1      44.413  16.508  21.450  0.00  0.00    +0.012 A 
ATOM      5  C   UNL     1      43.332  16.883  22.266  0.00  0.00    -0.022 A 
ATOM      6  C   UNL     1      42.578  17.969  21.940  0.00  0.00    +0.076 A 
ATOM      7  C   UNL     1      42.859  18.723  20.804  0.00  0.00    -0.092 A 
ATOM      8  C   UNL     1      43.908  18.389  19.978  0.00  0.00    +0.159 A 
ATOM     11  C   UNL     1      44.707  17.269  20.291  0.00  0.00    -0.104 A 
ATOM     12  C   UNL     1      45.788  16.896  19.473  0.00  0.00    +0.190 A 
ATOM     15  C   UNL     1      46.553  15.789  19.819  0.00  0.00    -0.108 A 
BRANCH   8   9
ATOM      9  O   UNL     1      44.173  19.130  18.872  0.00  0.00    -0.297 OA
ATOM     10  C   UNL     1      44.243  20.547  19.042  0.00  0.00    +0.245 C 
ENDBRANCH   8   9
BRANCH  12  13
ATOM     13  O   UNL     1      46.084  17.614  18.359  0.00  0.00    -0.475 OA
ATOM     14  H   UNL     1      46.190  17.077  17.562  0.00  0.00    +0.392 HD
ENDBRANCH  12  13
ENDBRANCH  16  15
BRANCH  17  18
ATOM     18  O   UNL     1      49.174  16.675  20.341  0.00  0.00    -0.285 OA
ATOM     19  C   UNL     1      49.529  18.033  20.070  0.00  0.00    +0.270 C 
ENDBRANCH  17  18
BRANCH  30  31
ATOM     31  O   UNL     1      46.243  14.099  17.593  0.00  0.00    -0.314 OA
ATOM     32  C   UNL     1      45.814  12.915  18.267  0.00  0.00    +0.257 C 
ENDBRANCH  30  31
TORSDOF 5
ENDMDL
MODEL 7
REMARK VINA RESULT:      -5.4      2.957      5.139
REMARK  Name = ZINC95486218
REMARK  11 active torsions:
REMARK  status: ('A' for Active; 'I' for Inactive)
REMARK    1  A    between atoms: C1_1  and  C2_2
REMARK    2  A    between atoms: C8_8  and  O4_29
REMARK    3  A    between atoms: C10_10  and  O3_28
REMARK    4  A    between atoms: C11_11  and  C12_12
REMARK    5  A    between atoms: C13_13  and  O2_26
REMARK    6  A    between atoms: C17_17  and  C23_25
REMARK    7  A    between atoms: C18_19  and  C22_24
REMARK    8  A    between atoms: C20_21  and  O1_22
REMARK    9  A    between atoms: O1_22  and  C21_23
REMARK   10  A    between atoms: O2_26  and  C24_27
REMARK   11  A    between atoms: O4_29  and  C25_30
REMARK                            x       y       z     vdW  Elec       q    Type
REMARK                         _______ _______ _______ _____ _____    ______ ____
ROOT
ATOM     16  C   UNL     1      45.764  17.124  19.999  0.00  0.00    -0.049 A 
ATOM     17  C   UNL     1      45.237  16.168  20.890  0.00  0.00    +0.232 A 
ATOM     20  C   UNL     1      45.137  14.856  20.529  0.00  0.00    -0.074 A 
ATOM     21  C   UNL     1      45.563  14.446  19.258  0.00  0.00    +0.070 A 
ATOM     22  C   UNL     1      45.478  13.103  18.842  0.00  0.00    +0.071 A 
ATOM     23  C   UNL     1      45.910  12.778  17.591  0.00  0.00    +0.111 A 
ATOM     24  C   UNL     1      45.825  11.343  17.138  0.00  0.00    +0.175 C 
ATOM     25  N   UNL     1      46.405  13.688  16.763  0.00  0.00    -0.468 N 
ATOM     26  H   UNL     1      46.699  13.404  15.883  0.00  0.00    +0.443 HD
ATOM     27  C   UNL     1      46.514  14.957  17.084  0.00  0.00    +0.266 A 
ATOM     28  C   UNL     1      47.086  15.938  16.093  0.00  0.00    +0.199 C 
ATOM     29  C   UNL     1      46.096  15.397  18.349  0.00  0.00    -0.151 A 
ATOM     30  C   UNL     1      46.188  16.748  18.732  0.00  0.00    +0.203 A 
ENDROOT
BRANCH  16  15
ATOM      1  C   UNL     1      47.941  17.944  21.698  0.00  0.00    +0.092 C 
ATOM      2  C   UNL     1      46.918  18.953  21.244  0.00  0.00    -0.042 A 
ATOM      3  C   UNL     1      47.034  20.248  21.636  0.00  0.00    +0.017 A 
ATOM      4  C   UNL     1      46.086  21.200  21.218  0.00  0.00    +0.012 A 
ATOM      5  C   UNL     1      46.189  22.545  21.613  0.00  0.00    -0.022 A 
ATOM      6  C   UNL     1      45.260  23.450  21.197  0.00  0.00    +0.076 A 
ATOM      7  C   UNL     1      44.200  23.066  20.380  0.00  0.00    -0.092 A 
ATOM      8  C   UNL     1      44.063  21.759  19.972  0.00  0.00    +0.159 A 
ATOM     11  C   UNL     1      45.011  20.800  20.387  0.00  0.00    -0.104 A 
ATOM     12  C   UNL     1      44.906  19.455  19.989  0.00  0.00    +0.190 A 
ATOM     15  C   UNL     1      45.862  18.542  20.416  0.00  0.00    -0.108 A 
BRANCH   8   9
ATOM      9  O   UNL     1      43.025  21.394  19.175  0.00  0.00    -0.297 OA
ATOM     10  C   UNL     1      41.964  22.338  19.022  0.00  0.00    +0.245 C 
ENDBRANCH   8   9
BRANCH  12  13
ATOM     13  O   UNL     1      43.882  19.053  19.193  0.00  0.00    -0.475 OA
ATOM     14  H   UNL     1      44.077  18.263  18.671  0.00  0.00    +0.392 HD
ENDBRANCH  12  13
ENDBRANCH  16  15
BRANCH  17  18
ATOM     18  O   UNL     1      44.823  16.559  22.122  0.00  0.00    -0.285 OA
ATOM     19  C   UNL     1      43.412  16.620  22.342  0.00  0.00    +0.270 C 
ENDBRANCH  17  18
BRANCH  30  31
ATOM     31  O   UNL     1      46.691  17.672  17.875  0.00  0.00    -0.314 OA
ATOM     32  C   UNL     1      48.045  18.080  18.082  0.00  0.00    +0.257 C 
ENDBRANCH  30  31
TORSDOF 5
ENDMDL
MODEL 8
REMARK VINA RESULT:      -5.4      4.328      6.764
REMARK  Name = ZINC95486218
REMARK  11 active torsions:
REMARK  status: ('A' for Active; 'I' for Inactive)
REMARK    1  A    between atoms: C1_1  and  C2_2
REMARK    2  A    between atoms: C8_8  and  O4_29
REMARK    3  A    between atoms: C10_10  and  O3_28
REMARK    4  A    between atoms: C11_11  and  C12_12
REMARK    5  A    between atoms: C13_13  and  O2_26
REMARK    6  A    between atoms: C17_17  and  C23_25
REMARK    7  A    between atoms: C18_19  and  C22_24
REMARK    8  A    between atoms: C20_21  and  O1_22
REMARK    9  A    between atoms: O1_22  and  C21_23
REMARK   10  A    between atoms: O2_26  and  C24_27
REMARK   11  A    between atoms: O4_29  and  C25_30
REMARK                            x       y       z     vdW  Elec       q    Type
REMARK                         _______ _______ _______ _____ _____    ______ ____
ROOT
ATOM     16  C   UNL     1      48.028  14.760  17.552  0.00  0.00    -0.049 A 
ATOM     17  C   UNL     1      49.394  15.091  17.649  0.00  0.00    +0.232 A 
ATOM     20  C   UNL     1      50.325  14.450  16.883  0.00  0.00    -0.074 A 
ATOM     21  C   UNL     1      49.925  13.450  15.986  0.00  0.00    +0.070 A 
ATOM     22  C   UNL     1      50.849  12.763  15.178  0.00  0.00    +0.071 A 
ATOM     23  C   UNL     1      50.388  11.802  14.329  0.00  0.00    +0.111 A 
ATOM     24  C   UNL     1      51.370  11.063  13.458  0.00  0.00    +0.175 C 
ATOM     25  N   UNL     1      49.099  11.501  14.247  0.00  0.00    -0.468 N 
ATOM     26  H   UNL     1      48.822  10.809  13.626  0.00  0.00    +0.443 HD
ATOM     27  C   UNL     1      48.182  12.101  14.971  0.00  0.00    +0.266 A 
ATOM     28  C   UNL     1      46.733  11.710  14.827  0.00  0.00    +0.199 C 
ATOM     29  C   UNL     1      48.551  13.106  15.877  0.00  0.00    -0.151 A 
ATOM     30  C   UNL     1      47.603  13.770  16.677  0.00  0.00    +0.203 A 
ENDROOT
BRANCH  16  15
ATOM      1  C   UNL     1      46.802  17.169  16.555  0.00  0.00    +0.092 C 
ATOM      2  C   UNL     1      46.435  16.645  17.919  0.00  0.00    -0.042 A 
ATOM      3  C   UNL     1      45.520  17.313  18.669  0.00  0.00    +0.017 A 
ATOM      4  C   UNL     1      45.167  16.834  19.944  0.00  0.00    +0.012 A 
ATOM      5  C   UNL     1      44.222  17.510  20.735  0.00  0.00    -0.022 A 
ATOM      6  C   UNL     1      43.895  17.029  21.966  0.00  0.00    +0.076 A 
ATOM      7  C   UNL     1      44.484  15.869  22.462  0.00  0.00    -0.092 A 
ATOM      8  C   UNL     1      45.414  15.177  21.719  0.00  0.00    +0.159 A 
ATOM     11  C   UNL     1      45.771  15.652  20.440  0.00  0.00    -0.104 A 
ATOM     12  C   UNL     1      46.716  14.973  19.651  0.00  0.00    +0.190 A 
ATOM     15  C   UNL     1      47.038  15.471  18.394  0.00  0.00    -0.108 A 
BRANCH   8   9
ATOM      9  O   UNL     1      45.982  14.047  22.213  0.00  0.00    -0.297 OA
ATOM     10  C   UNL     1      45.108  12.956  22.505  0.00  0.00    +0.245 C 
ENDBRANCH   8   9
BRANCH  12  13
ATOM     13  O   UNL     1      47.305  13.839  20.110  0.00  0.00    -0.475 OA
ATOM     14  H   UNL     1      47.580  13.887  21.036  0.00  0.00    +0.392 HD
ENDBRANCH  12  13
ENDBRANCH  16  15
BRANCH  17  18
ATOM     18  O   UNL     1      49.788  16.058  18.516  0.00  0.00    -0.285 OA
ATOM     19  C   UNL     1      51.147  16.494  18.426  0.00  0.00    +0.270 C 
ENDBRANCH  17  18
BRANCH  30  31
ATOM     31  O   UNL     1      46.287  13.451  16.589  0.00  0.00    -0.314 OA
ATOM     32  C   UNL     1      45.775  12.535  17.560  0.00  0.00    +0.257 C 
ENDBRANCH  30  31
TORSDOF 5
ENDMDL
MODEL 9
REMARK VINA RESULT:      -5.3      3.442      5.813
REMARK  Name = ZINC95486218
REMARK  11 active torsions:
REMARK  status: ('A' for Active; 'I' for Inactive)
REMARK    1  A    between atoms: C1_1  and  C2_2
REMARK    2  A    between atoms: C8_8  and  O4_29
REMARK    3  A    between atoms: C10_10  and  O3_28
REMARK    4  A    between atoms: C11_11  and  C12_12
REMARK    5  A    between atoms: C13_13  and  O2_26
REMARK    6  A    between atoms: C17_17  and  C23_25
REMARK    7  A    between atoms: C18_19  and  C22_24
REMARK    8  A    between atoms: C20_21  and  O1_22
REMARK    9  A    between atoms: O1_22  and  C21_23
REMARK   10  A    between atoms: O2_26  and  C24_27
REMARK   11  A    between atoms: O4_29  and  C25_30
REMARK                            x       y       z     vdW  Elec       q    Type
REMARK                         _______ _______ _______ _____ _____    ______ ____
ROOT
ATOM     16  C   UNL     1      48.289  17.303  18.887  0.00  0.00    -0.049 A 
ATOM     17  C   UNL     1      47.764  18.557  18.518  0.00  0.00    +0.232 A 
ATOM     20  C   UNL     1      48.479  19.702  18.720  0.00  0.00    -0.074 A 
ATOM     21  C   UNL     1      49.753  19.637  19.300  0.00  0.00    +0.070 A 
ATOM     22  C   UNL     1      50.526  20.791  19.528  0.00  0.00    +0.071 A 
ATOM     23  C   UNL     1      51.756  20.652  20.097  0.00  0.00    +0.111 A 
ATOM     24  C   UNL     1      52.592  21.882  20.342  0.00  0.00    +0.175 C 
ATOM     25  N   UNL     1      52.239  19.465  20.439  0.00  0.00    -0.468 N 
ATOM     26  H   UNL     1      53.121  19.421  20.840  0.00  0.00    +0.443 HD
ATOM     27  C   UNL     1      51.574  18.348  20.255  0.00  0.00    +0.266 A 
ATOM     28  C   UNL     1      52.183  17.032  20.667  0.00  0.00    +0.199 C 
ATOM     29  C   UNL     1      50.297  18.380  19.677  0.00  0.00    -0.151 A 
ATOM     30  C   UNL     1      49.545  17.208  19.468  0.00  0.00    +0.203 A 
ENDROOT
BRANCH  16  15
ATOM      1  C   UNL     1      46.097  16.695  20.655  0.00  0.00    +0.092 C 
ATOM      2  C   UNL     1      46.422  15.769  19.511  0.00  0.00    -0.042 A 
ATOM      3  C   UNL     1      45.672  14.653  19.319  0.00  0.00    +0.017 A 
ATOM      4  C   UNL     1      45.965  13.781  18.254  0.00  0.00    +0.012 A 
ATOM      5  C   UNL     1      45.201  12.621  18.038  0.00  0.00    -0.022 A 
ATOM      6  C   UNL     1      45.502  11.791  17.001  0.00  0.00    +0.076 A 
ATOM      7  C   UNL     1      46.562  12.070  16.143  0.00  0.00    -0.092 A 
ATOM      8  C   UNL     1      47.334  13.195  16.320  0.00  0.00    +0.159 A 
ATOM     11  C   UNL     1      47.046  14.073  17.386  0.00  0.00    -0.104 A 
ATOM     12  C   UNL     1      47.812  15.233  17.599  0.00  0.00    +0.190 A 
ATOM     15  C   UNL     1      47.492  16.075  18.656  0.00  0.00    -0.108 A 
BRANCH   8   9
ATOM      9  O   UNL     1      48.367  13.458  15.478  0.00  0.00    -0.297 OA
ATOM     10  C   UNL     1      48.387  12.749  14.237  0.00  0.00    +0.245 C 
ENDBRANCH   8   9
BRANCH  12  13
ATOM     13  O   UNL     1      48.850  15.529  16.777  0.00  0.00    -0.475 OA
ATOM     14  H   UNL     1      49.677  15.088  17.013  0.00  0.00    +0.392 HD
ENDBRANCH  12  13
ENDBRANCH  16  15
BRANCH  17  18
ATOM     18  O   UNL     1      46.530  18.626  17.956  0.00  0.00    -0.285 OA
ATOM     19  C   UNL     1      45.649  19.638  18.450  0.00  0.00    +0.270 C 
ENDBRANCH  17  18
BRANCH  30  31
ATOM     31  O   UNL     1      50.047  16.000  19.827  0.00  0.00    -0.314 OA
ATOM     32  C   UNL     1      49.567  15.434  21.048  0.00  0.00    +0.257 C 
ENDBRANCH  30  31
TORSDOF 5
ENDMDL
