MODEL 1
REMARK VINA RESULT:      -4.1      0.000      0.000
REMARK  Name = ZINC95486192
REMARK  19 active torsions:
REMARK  status: ('A' for Active; 'I' for Inactive)
REMARK    1  A    between atoms: C1_1  and  C2_2
REMARK    2  A    between atoms: C5_5  and  C36_47
REMARK    3  A    between atoms: C7_7  and  C13_15
REMARK    4  A    between atoms: C8_8  and  O2_14
REMARK    5  A    between atoms: C10_10  and  O1_12
REMARK    6  A    between atoms: O1_12  and  C12_13
REMARK    7  A    between atoms: C15_17  and  C25_29
REMARK    8  A    between atoms: C18_20  and  C24_28
REMARK    9  A    between atoms: C20_22  and  O4_26
REMARK   10  A    between atoms: C22_24  and  O3_25
REMARK   11  A    between atoms: O4_26  and  C23_27
REMARK   12  A    between atoms: C26_30  and  O6_46
REMARK   13  A    between atoms: C28_32  and  O5_45
REMARK   14  A    between atoms: C32_38  and  C35_44
REMARK   15  A    between atoms: C33_41  and  C34_43
REMARK   16  A    between atoms: C40_51  and  O8_54
REMARK   17  A    between atoms: C41_52  and  O7_53
REMARK   18  A    between atoms: C42_55  and  C46_61
REMARK   19  A    between atoms: C43_57  and  C45_60
REMARK                            x       y       z     vdW  Elec       q    Type
REMARK                         _______ _______ _______ _____ _____    ______ ____
ROOT
ATOM     24  C   UNL     1      51.332  14.860  19.090  0.00  0.00    -0.094 A 
ATOM     25  C   UNL     1      51.444  16.201  19.470  0.00  0.00    +0.055 A 
ATOM     26  C   UNL     1      52.675  16.730  19.833  0.00  0.00    -0.038 A 
ATOM     45  C   UNL     1      53.854  15.863  19.811  0.00  0.00    +0.025 A 
ATOM     46  C   UNL     1      55.118  16.350  20.169  0.00  0.00    -0.030 A 
ATOM     47  C   UNL     1      56.199  15.520  20.140  0.00  0.00    -0.027 A 
ATOM     48  C   UNL     1      57.554  16.053  20.527  0.00  0.00    +0.092 C 
ATOM     49  C   UNL     1      56.071  14.188  19.759  0.00  0.00    -0.101 A 
ATOM     50  C   UNL     1      54.844  13.675  19.399  0.00  0.00    +0.167 A 
ATOM     53  C   UNL     1      53.709  14.510  19.422  0.00  0.00    -0.106 A 
ATOM     54  C   UNL     1      52.439  14.022  19.068  0.00  0.00    +0.189 A 
ENDROOT
BRANCH  26  27
ATOM     27  C   UNL     1      52.792  18.138  20.232  0.00  0.00    -0.179 C 
ATOM     28  C   UNL     1      52.902  18.481  21.543  0.00  0.00    +0.177 C 
ATOM     31  C   UNL     1      52.976  19.895  21.924  0.00  0.00    -0.140 C 
ATOM     32  C   UNL     1      52.571  20.846  21.066  0.00  0.00    +0.140 C 
ATOM     35  C   UNL     1      52.018  20.436  19.731  0.00  0.00    +0.061 C 
ATOM     36  C   UNL     1      52.109  21.556  18.700  0.00  0.00    +0.191 C 
ATOM     37  C   UNL     1      53.578  21.899  18.442  0.00  0.00    +0.094 C 
ATOM     38  N   UNL     1      51.483  21.105  17.448  0.00  0.00    -0.503 N 
ATOM     39  H   UNL     1      50.526  20.839  17.630  0.00  0.00    +0.426 HD
ATOM     40  H   UNL     1      51.496  21.857  16.776  0.00  0.00    +0.431 HD
ATOM     41  C   UNL     1      52.208  19.954  16.901  0.00  0.00    +0.159 C 
ATOM     42  C   UNL     1      51.559  19.533  15.581  0.00  0.00    +0.090 C 
ATOM     43  C   UNL     1      52.168  18.778  17.885  0.00  0.00    +0.089 C 
ATOM     44  C   UNL     1      52.800  19.229  19.199  0.00  0.00    +0.076 C 
BRANCH  28  29
ATOM     29  O   UNL     1      52.941  17.517  22.498  0.00  0.00    -0.456 OA
ATOM     30  H   UNL     1      52.359  17.684  23.251  0.00  0.00    +0.400 HD
ENDBRANCH  28  29
BRANCH  32  33
ATOM     33  O   UNL     1      52.658  22.155  21.400  0.00  0.00    -0.472 OA
ATOM     34  H   UNL     1      53.332  22.346  22.066  0.00  0.00    +0.415 HD
ENDBRANCH  32  33
ENDBRANCH  26  27
BRANCH  24  23
ATOM      1  C   UNL     1      44.761  11.522  16.107  0.00  0.00    +0.095 C 
ATOM      2  C   UNL     1      46.112  12.068  16.490  0.00  0.00    -0.018 A 
ATOM      3  C   UNL     1      46.241  12.798  17.633  0.00  0.00    -0.043 A 
ATOM      4  C   UNL     1      47.493  13.311  18.000  0.00  0.00    +0.024 A 
ATOM      5  C   UNL     1      47.650  14.071  19.186  0.00  0.00    -0.059 A 
ATOM     22  C   UNL     1      48.895  14.564  19.524  0.00  0.00    +0.073 A 
ATOM     23  C   UNL     1      50.005  14.321  18.706  0.00  0.00    -0.095 A 
ATOM     57  C   UNL     1      49.875  13.578  17.540  0.00  0.00    +0.191 A 
ATOM     60  C   UNL     1      48.617  13.064  17.175  0.00  0.00    -0.105 A 
ATOM     61  C   UNL     1      48.456  12.307  15.997  0.00  0.00    +0.168 A 
ATOM     64  C   UNL     1      47.210  11.815  15.673  0.00  0.00    -0.098 A 
BRANCH   5   6
ATOM      6  C   UNL     1      46.483  14.337  20.058  0.00  0.00    -0.049 A 
ATOM      7  C   UNL     1      45.886  15.590  20.062  0.00  0.00    -0.045 A 
ATOM      8  C   UNL     1      44.786  15.838  20.886  0.00  0.00    -0.107 A 
ATOM      9  C   UNL     1      44.175  17.179  20.863  0.00  0.00    +0.212 C 
ATOM     10  C   UNL     1      42.773  17.382  21.379  0.00  0.00    +0.135 C 
ATOM     11  N   UNL     1      44.845  18.182  20.399  0.00  0.00    -0.507 NA
ATOM     12  C   UNL     1      46.210  18.041  19.903  0.00  0.00    +0.151 C 
ATOM     13  C   UNL     1      46.508  19.179  18.924  0.00  0.00    +0.054 C 
ATOM     14  C   UNL     1      44.285  14.828  21.708  0.00  0.00    +0.052 A 
ATOM     15  C   UNL     1      44.879  13.579  21.704  0.00  0.00    +0.079 A 
ATOM     18  C   UNL     1      46.403  16.704  19.189  0.00  0.00    +0.072 C 
ATOM     19  C   UNL     1      45.973  13.325  20.880  0.00  0.00    +0.117 A 
BRANCH  15  16
ATOM     16  O   UNL     1      44.392  12.594  22.505  0.00  0.00    -0.486 OA
ATOM     17  H   UNL     1      44.413  11.714  22.104  0.00  0.00    +0.395 HD
ENDBRANCH  15  16
BRANCH  19  20
ATOM     20  O   UNL     1      46.548  12.095  20.878  0.00  0.00    -0.483 OA
ATOM     21  H   UNL     1      47.180  11.955  21.596  0.00  0.00    +0.398 HD
ENDBRANCH  19  20
ENDBRANCH   5   6
BRANCH  57  58
ATOM     58  O   UNL     1      50.958  13.348  16.754  0.00  0.00    -0.463 OA
ATOM     59  H   UNL     1      51.649  14.021  16.830  0.00  0.00    +0.387 HD
ENDBRANCH  57  58
BRANCH  61  62
ATOM     62  O   UNL     1      49.520  12.059  15.191  0.00  0.00    -0.292 OA
ATOM     63  C   UNL     1      49.592  10.764  14.590  0.00  0.00    +0.243 C 
ENDBRANCH  61  62
ENDBRANCH  24  23
BRANCH  50  51
ATOM     51  O   UNL     1      54.729  12.373  19.029  0.00  0.00    -0.292 OA
ATOM     52  C   UNL     1      55.483  11.417  19.777  0.00  0.00    +0.243 C 
ENDBRANCH  50  51
BRANCH  54  55
ATOM     55  O   UNL     1      52.295  12.722  18.699  0.00  0.00    -0.465 OA
ATOM     56  H   UNL     1      52.693  12.510  17.845  0.00  0.00    +0.388 HD
ENDBRANCH  54  55
TORSDOF 11
ENDMDL
MODEL 2
REMARK VINA RESULT:      -3.9      2.638      7.693
REMARK  Name = ZINC95486192
REMARK  19 active torsions:
REMARK  status: ('A' for Active; 'I' for Inactive)
REMARK    1  A    between atoms: C1_1  and  C2_2
REMARK    2  A    between atoms: C5_5  and  C36_47
REMARK    3  A    between atoms: C7_7  and  C13_15
REMARK    4  A    between atoms: C8_8  and  O2_14
REMARK    5  A    between atoms: C10_10  and  O1_12
REMARK    6  A    between atoms: O1_12  and  C12_13
REMARK    7  A    between atoms: C15_17  and  C25_29
REMARK    8  A    between atoms: C18_20  and  C24_28
REMARK    9  A    between atoms: C20_22  and  O4_26
REMARK   10  A    between atoms: C22_24  and  O3_25
REMARK   11  A    between atoms: O4_26  and  C23_27
REMARK   12  A    between atoms: C26_30  and  O6_46
REMARK   13  A    between atoms: C28_32  and  O5_45
REMARK   14  A    between atoms: C32_38  and  C35_44
REMARK   15  A    between atoms: C33_41  and  C34_43
REMARK   16  A    between atoms: C40_51  and  O8_54
REMARK   17  A    between atoms: C41_52  and  O7_53
REMARK   18  A    between atoms: C42_55  and  C46_61
REMARK   19  A    between atoms: C43_57  and  C45_60
REMARK                            x       y       z     vdW  Elec       q    Type
REMARK                         _______ _______ _______ _____ _____    ______ ____
ROOT
ATOM     24  C   UNL     1      49.922  16.691  19.931  0.00  0.00    -0.094 A 
ATOM     25  C   UNL     1      48.594  16.592  20.358  0.00  0.00    +0.055 A 
ATOM     26  C   UNL     1      47.961  17.677  20.951  0.00  0.00    -0.038 A 
ATOM     45  C   UNL     1      48.706  18.925  21.124  0.00  0.00    +0.025 A 
ATOM     46  C   UNL     1      48.112  20.046  21.716  0.00  0.00    -0.030 A 
ATOM     47  C   UNL     1      48.830  21.196  21.865  0.00  0.00    -0.027 A 
ATOM     48  C   UNL     1      48.182  22.397  22.505  0.00  0.00    +0.092 C 
ATOM     49  C   UNL     1      50.150  21.278  21.436  0.00  0.00    -0.101 A 
ATOM     50  C   UNL     1      50.767  20.196  20.847  0.00  0.00    +0.167 A 
ATOM     53  C   UNL     1      50.049  18.994  20.682  0.00  0.00    -0.106 A 
ATOM     54  C   UNL     1      50.645  17.866  20.092  0.00  0.00    +0.189 A 
ENDROOT
BRANCH  26  27
ATOM     27  C   UNL     1      46.567  17.572  21.397  0.00  0.00    -0.179 C 
ATOM     28  C   UNL     1      46.137  16.477  22.080  0.00  0.00    +0.177 C 
ATOM     31  C   UNL     1      44.731  16.372  22.481  0.00  0.00    -0.140 C 
ATOM     32  C   UNL     1      43.801  17.134  21.881  0.00  0.00    +0.140 C 
ATOM     35  C   UNL     1      44.220  18.066  20.782  0.00  0.00    +0.061 C 
ATOM     36  C   UNL     1      43.226  19.205  20.580  0.00  0.00    +0.191 C 
ATOM     37  C   UNL     1      43.170  20.068  21.842  0.00  0.00    +0.094 C 
ATOM     38  N   UNL     1      43.667  20.028  19.443  0.00  0.00    -0.503 N 
ATOM     39  H   UNL     1      43.744  19.447  18.620  0.00  0.00    +0.426 HD
ATOM     40  H   UNL     1      42.989  20.756  19.272  0.00  0.00    +0.431 HD
ATOM     41  C   UNL     1      44.969  20.637  19.727  0.00  0.00    +0.159 C 
ATOM     42  C   UNL     1      45.382  21.516  18.544  0.00  0.00    +0.090 C 
ATOM     43  C   UNL     1      46.031  19.552  19.948  0.00  0.00    +0.089 C 
ATOM     44  C   UNL     1      45.587  18.675  21.116  0.00  0.00    +0.076 C 
BRANCH  28  29
ATOM     29  O   UNL     1      47.008  15.482  22.387  0.00  0.00    -0.456 OA
ATOM     30  H   UNL     1      47.275  14.944  21.630  0.00  0.00    +0.400 HD
ENDBRANCH  28  29
BRANCH  32  33
ATOM     33  O   UNL     1      42.504  17.061  22.262  0.00  0.00    -0.472 OA
ATOM     34  H   UNL     1      41.923  16.652  21.607  0.00  0.00    +0.415 HD
ENDBRANCH  32  33
ENDBRANCH  26  27
BRANCH  24  23
ATOM      1  C   UNL     1      53.978  10.277  17.558  0.00  0.00    +0.095 C 
ATOM      2  C   UNL     1      53.321  11.470  18.205  0.00  0.00    -0.018 A 
ATOM      3  C   UNL     1      52.408  12.196  17.501  0.00  0.00    -0.043 A 
ATOM      4  C   UNL     1      51.790  13.307  18.093  0.00  0.00    +0.024 A 
ATOM      5  C   UNL     1      50.836  14.075  17.380  0.00  0.00    -0.059 A 
ATOM     22  C   UNL     1      50.242  15.165  17.987  0.00  0.00    +0.073 A 
ATOM     23  C   UNL     1      50.573  15.518  19.301  0.00  0.00    -0.095 A 
ATOM     57  C   UNL     1      51.505  14.779  20.019  0.00  0.00    +0.191 A 
ATOM     60  C   UNL     1      52.123  13.665  19.422  0.00  0.00    -0.105 A 
ATOM     61  C   UNL     1      53.071  12.896  20.127  0.00  0.00    +0.168 A 
ATOM     64  C   UNL     1      53.653  11.808  19.513  0.00  0.00    -0.098 A 
BRANCH   5   6
ATOM      6  C   UNL     1      50.478  13.712  15.989  0.00  0.00    -0.049 A 
ATOM      7  C   UNL     1      49.218  13.206  15.703  0.00  0.00    -0.045 A 
ATOM      8  C   UNL     1      48.884  12.865  14.390  0.00  0.00    -0.107 A 
ATOM      9  C   UNL     1      47.536  12.332  14.120  0.00  0.00    +0.212 C 
ATOM     10  C   UNL     1      46.980  12.353  12.720  0.00  0.00    +0.135 C 
ATOM     11  N   UNL     1      46.833  11.847  15.089  0.00  0.00    -0.507 NA
ATOM     12  C   UNL     1      47.332  11.789  16.459  0.00  0.00    +0.151 C 
ATOM     13  C   UNL     1      46.145  11.739  17.424  0.00  0.00    +0.054 C 
ATOM     14  C   UNL     1      49.816  13.031  13.364  0.00  0.00    +0.052 A 
ATOM     15  C   UNL     1      51.072  13.536  13.650  0.00  0.00    +0.079 A 
ATOM     18  C   UNL     1      48.189  13.011  16.786  0.00  0.00    +0.072 C 
ATOM     19  C   UNL     1      51.407  13.884  14.956  0.00  0.00    +0.117 A 
BRANCH  15  16
ATOM     16  O   UNL     1      51.980  13.698  12.651  0.00  0.00    -0.486 OA
ATOM     17  H   UNL     1      51.610  13.603  11.763  0.00  0.00    +0.395 HD
ENDBRANCH  15  16
BRANCH  19  20
ATOM     20  O   UNL     1      52.640  14.384  15.228  0.00  0.00    -0.483 OA
ATOM     21  H   UNL     1      52.850  14.422  16.171  0.00  0.00    +0.398 HD
ENDBRANCH  19  20
ENDBRANCH   5   6
BRANCH  57  58
ATOM     58  O   UNL     1      51.818  15.131  21.291  0.00  0.00    -0.463 OA
ATOM     59  H   UNL     1      52.538  15.775  21.356  0.00  0.00    +0.387 HD
ENDBRANCH  57  58
BRANCH  61  62
ATOM     62  O   UNL     1      53.405  13.222  21.402  0.00  0.00    -0.292 OA
ATOM     63  C   UNL     1      54.757  12.986  21.800  0.00  0.00    +0.243 C 
ENDBRANCH  61  62
ENDBRANCH  24  23
BRANCH  50  51
ATOM     51  O   UNL     1      52.057  20.286  20.431  0.00  0.00    -0.292 OA
ATOM     52  C   UNL     1      52.576  21.598  20.208  0.00  0.00    +0.243 C 
ENDBRANCH  50  51
BRANCH  54  55
ATOM     55  O   UNL     1      51.936  17.926  19.672  0.00  0.00    -0.465 OA
ATOM     56  H   UNL     1      52.068  18.471  18.885  0.00  0.00    +0.388 HD
ENDBRANCH  54  55
TORSDOF 11
ENDMDL
MODEL 3
REMARK VINA RESULT:      -3.2      3.858      8.203
REMARK  Name = ZINC95486192
REMARK  19 active torsions:
REMARK  status: ('A' for Active; 'I' for Inactive)
REMARK    1  A    between atoms: C1_1  and  C2_2
REMARK    2  A    between atoms: C5_5  and  C36_47
REMARK    3  A    between atoms: C7_7  and  C13_15
REMARK    4  A    between atoms: C8_8  and  O2_14
REMARK    5  A    between atoms: C10_10  and  O1_12
REMARK    6  A    between atoms: O1_12  and  C12_13
REMARK    7  A    between atoms: C15_17  and  C25_29
REMARK    8  A    between atoms: C18_20  and  C24_28
REMARK    9  A    between atoms: C20_22  and  O4_26
REMARK   10  A    between atoms: C22_24  and  O3_25
REMARK   11  A    between atoms: O4_26  and  C23_27
REMARK   12  A    between atoms: C26_30  and  O6_46
REMARK   13  A    between atoms: C28_32  and  O5_45
REMARK   14  A    between atoms: C32_38  and  C35_44
REMARK   15  A    between atoms: C33_41  and  C34_43
REMARK   16  A    between atoms: C40_51  and  O8_54
REMARK   17  A    between atoms: C41_52  and  O7_53
REMARK   18  A    between atoms: C42_55  and  C46_61
REMARK   19  A    between atoms: C43_57  and  C45_60
REMARK                            x       y       z     vdW  Elec       q    Type
REMARK                         _______ _______ _______ _____ _____    ______ ____
ROOT
ATOM     24  C   UNL     1      47.419  17.624  18.257  0.00  0.00    -0.094 A 
ATOM     25  C   UNL     1      47.495  16.280  17.880  0.00  0.00    +0.055 A 
ATOM     26  C   UNL     1      48.607  15.799  17.201  0.00  0.00    -0.038 A 
ATOM     45  C   UNL     1      49.699  16.721  16.885  0.00  0.00    +0.025 A 
ATOM     46  C   UNL     1      50.840  16.285  16.202  0.00  0.00    -0.030 A 
ATOM     47  C   UNL     1      51.842  17.166  15.921  0.00  0.00    -0.027 A 
ATOM     48  C   UNL     1      53.066  16.687  15.184  0.00  0.00    +0.092 C 
ATOM     49  C   UNL     1      51.751  18.500  16.302  0.00  0.00    -0.101 A 
ATOM     50  C   UNL     1      50.644  18.965  16.977  0.00  0.00    +0.167 A 
ATOM     53  C   UNL     1      49.593  18.077  17.280  0.00  0.00    -0.106 A 
ATOM     54  C   UNL     1      48.443  18.514  17.961  0.00  0.00    +0.189 A 
ENDROOT
BRANCH  26  27
ATOM     27  C   UNL     1      48.685  14.388  16.807  0.00  0.00    -0.179 C 
ATOM     28  C   UNL     1      47.831  13.877  15.879  0.00  0.00    +0.177 C 
ATOM     31  C   UNL     1      47.898  12.456  15.529  0.00  0.00    -0.140 C 
ATOM     32  C   UNL     1      48.512  11.588  16.350  0.00  0.00    +0.140 C 
ATOM     35  C   UNL     1      49.098  12.092  17.637  0.00  0.00    +0.061 C 
ATOM     36  C   UNL     1      50.184  11.167  18.178  0.00  0.00    +0.191 C 
ATOM     37  C   UNL     1      51.353  11.117  17.192  0.00  0.00    +0.094 C 
ATOM     38  N   UNL     1      50.654  11.688  19.471  0.00  0.00    -0.503 N 
ATOM     39  H   UNL     1      49.872  11.760  20.106  0.00  0.00    +0.426 HD
ATOM     40  H   UNL     1      51.338  11.056  19.859  0.00  0.00    +0.431 HD
ATOM     41  C   UNL     1      51.259  13.011  19.299  0.00  0.00    +0.159 C 
ATOM     42  C   UNL     1      51.773  13.508  20.652  0.00  0.00    +0.090 C 
ATOM     43  C   UNL     1      50.228  14.006  18.751  0.00  0.00    +0.089 C 
ATOM     44  C   UNL     1      49.714  13.478  17.414  0.00  0.00    +0.076 C 
BRANCH  28  29
ATOM     29  O   UNL     1      46.917  14.683  15.280  0.00  0.00    -0.456 OA
ATOM     30  H   UNL     1      46.024  14.314  15.252  0.00  0.00    +0.400 HD
ENDBRANCH  28  29
BRANCH  32  33
ATOM     33  O   UNL     1      48.599  10.277  16.022  0.00  0.00    -0.472 OA
ATOM     34  H   UNL     1      48.333  10.080  15.114  0.00  0.00    +0.415 HD
ENDBRANCH  32  33
ENDBRANCH  26  27
BRANCH  24  23
ATOM      1  C   UNL     1      40.866  19.131  22.500  0.00  0.00    +0.095 C 
ATOM      2  C   UNL     1      42.082  18.629  21.764  0.00  0.00    -0.018 A 
ATOM      3  C   UNL     1      42.830  19.502  21.032  0.00  0.00    -0.043 A 
ATOM      4  C   UNL     1      43.964  19.047  20.344  0.00  0.00    +0.024 A 
ATOM      5  C   UNL     1      44.756  19.938  19.577  0.00  0.00    -0.059 A 
ATOM     22  C   UNL     1      45.868  19.463  18.909  0.00  0.00    +0.073 A 
ATOM     23  C   UNL     1      46.221  18.111  18.982  0.00  0.00    -0.095 A 
ATOM     57  C   UNL     1      45.459  17.219  19.727  0.00  0.00    +0.191 A 
ATOM     60  C   UNL     1      44.322  17.680  20.417  0.00  0.00    -0.105 A 
ATOM     61  C   UNL     1      43.531  16.798  21.181  0.00  0.00    +0.168 A 
ATOM     64  C   UNL     1      42.427  17.284  21.848  0.00  0.00    -0.098 A 
BRANCH   5   6
ATOM      6  C   UNL     1      44.393  21.371  19.492  0.00  0.00    -0.049 A 
ATOM      7  C   UNL     1      45.213  22.334  20.063  0.00  0.00    -0.045 A 
ATOM      8  C   UNL     1      44.868  23.685  19.981  0.00  0.00    -0.107 A 
ATOM      9  C   UNL     1      45.763  24.681  20.597  0.00  0.00    +0.212 C 
ATOM     10  C   UNL     1      45.682  26.129  20.185  0.00  0.00    +0.135 C 
ATOM     11  N   UNL     1      46.617  24.309  21.492  0.00  0.00    -0.507 NA
ATOM     12  C   UNL     1      46.724  22.923  21.936  0.00  0.00    +0.151 C 
ATOM     13  C   UNL     1      48.124  22.685  22.505  0.00  0.00    +0.054 C 
ATOM     14  C   UNL     1      43.698  24.070  19.325  0.00  0.00    +0.052 A 
ATOM     15  C   UNL     1      42.880  23.111  18.755  0.00  0.00    +0.079 A 
ATOM     18  C   UNL     1      46.482  21.953  20.781  0.00  0.00    +0.072 C 
ATOM     19  C   UNL     1      43.224  21.763  18.829  0.00  0.00    +0.117 A 
BRANCH  15  16
ATOM     16  O   UNL     1      41.740  23.485  18.116  0.00  0.00    -0.486 OA
ATOM     17  H   UNL     1      40.932  23.317  18.621  0.00  0.00    +0.395 HD
ENDBRANCH  15  16
BRANCH  19  20
ATOM     20  O   UNL     1      42.419  20.827  18.262  0.00  0.00    -0.483 OA
ATOM     21  H   UNL     1      41.715  21.196  17.712  0.00  0.00    +0.398 HD
ENDBRANCH  19  20
ENDBRANCH   5   6
BRANCH  57  58
ATOM     58  O   UNL     1      45.810  15.910  19.790  0.00  0.00    -0.463 OA
ATOM     59  H   UNL     1      46.407  15.628  19.083  0.00  0.00    +0.387 HD
ENDBRANCH  57  58
BRANCH  61  62
ATOM     62  O   UNL     1      43.856  15.483  21.264  0.00  0.00    -0.292 OA
ATOM     63  C   UNL     1      44.637  15.077  22.391  0.00  0.00    +0.243 C 
ENDBRANCH  61  62
ENDBRANCH  24  23
BRANCH  50  51
ATOM     51  O   UNL     1      50.565  20.270  17.346  0.00  0.00    -0.292 OA
ATOM     52  C   UNL     1      51.553  21.156  16.814  0.00  0.00    +0.243 C 
ENDBRANCH  50  51
BRANCH  54  55
ATOM     55  O   UNL     1      48.336  19.815  18.337  0.00  0.00    -0.465 OA
ATOM     56  H   UNL     1      47.745  19.961  19.087  0.00  0.00    +0.388 HD
ENDBRANCH  54  55
TORSDOF 11
ENDMDL
MODEL 4
REMARK VINA RESULT:      -2.2      3.196      8.668
REMARK  Name = ZINC95486192
REMARK  19 active torsions:
REMARK  status: ('A' for Active; 'I' for Inactive)
REMARK    1  A    between atoms: C1_1  and  C2_2
REMARK    2  A    between atoms: C5_5  and  C36_47
REMARK    3  A    between atoms: C7_7  and  C13_15
REMARK    4  A    between atoms: C8_8  and  O2_14
REMARK    5  A    between atoms: C10_10  and  O1_12
REMARK    6  A    between atoms: O1_12  and  C12_13
REMARK    7  A    between atoms: C15_17  and  C25_29
REMARK    8  A    between atoms: C18_20  and  C24_28
REMARK    9  A    between atoms: C20_22  and  O4_26
REMARK   10  A    between atoms: C22_24  and  O3_25
REMARK   11  A    between atoms: O4_26  and  C23_27
REMARK   12  A    between atoms: C26_30  and  O6_46
REMARK   13  A    between atoms: C28_32  and  O5_45
REMARK   14  A    between atoms: C32_38  and  C35_44
REMARK   15  A    between atoms: C33_41  and  C34_43
REMARK   16  A    between atoms: C40_51  and  O8_54
REMARK   17  A    between atoms: C41_52  and  O7_53
REMARK   18  A    between atoms: C42_55  and  C46_61
REMARK   19  A    between atoms: C43_57  and  C45_60
REMARK                            x       y       z     vdW  Elec       q    Type
REMARK                         _______ _______ _______ _____ _____    ______ ____
ROOT
ATOM     24  C   UNL     1      48.017  17.557  21.364  0.00  0.00    -0.094 A 
ATOM     25  C   UNL     1      47.825  18.926  21.153  0.00  0.00    +0.055 A 
ATOM     26  C   UNL     1      46.556  19.483  21.249  0.00  0.00    -0.038 A 
ATOM     45  C   UNL     1      45.423  18.616  21.574  0.00  0.00    +0.025 A 
ATOM     46  C   UNL     1      44.125  19.130  21.682  0.00  0.00    -0.030 A 
ATOM     47  C   UNL     1      43.088  18.298  21.986  0.00  0.00    -0.027 A 
ATOM     48  C   UNL     1      41.695  18.861  22.099  0.00  0.00    +0.092 C 
ATOM     49  C   UNL     1      43.296  16.938  22.192  0.00  0.00    -0.101 A 
ATOM     50  C   UNL     1      44.559  16.398  22.096  0.00  0.00    +0.167 A 
ATOM     53  C   UNL     1      45.650  17.234  21.782  0.00  0.00    -0.106 A 
ATOM     54  C   UNL     1      46.953  16.719  21.668  0.00  0.00    +0.189 A 
ENDROOT
BRANCH  26  27
ATOM     27  C   UNL     1      46.356  20.921  21.029  0.00  0.00    -0.179 C 
ATOM     28  C   UNL     1      47.129  21.836  21.675  0.00  0.00    +0.177 C 
ATOM     31  C   UNL     1      46.887  23.267  21.473  0.00  0.00    -0.140 C 
ATOM     32  C   UNL     1      45.712  23.688  20.974  0.00  0.00    +0.140 C 
ATOM     35  C   UNL     1      44.651  22.676  20.656  0.00  0.00    +0.061 C 
ATOM     36  C   UNL     1      43.640  23.198  19.640  0.00  0.00    +0.191 C 
ATOM     37  C   UNL     1      44.346  23.477  18.310  0.00  0.00    +0.094 C 
ATOM     38  N   UNL     1      42.596  22.182  19.438  0.00  0.00    -0.503 N 
ATOM     39  H   UNL     1      42.161  21.969  20.324  0.00  0.00    +0.426 HD
ATOM     40  H   UNL     1      41.898  22.539  18.803  0.00  0.00    +0.431 HD
ATOM     41  C   UNL     1      43.177  20.957  18.879  0.00  0.00    +0.159 C 
ATOM     42  C   UNL     1      42.063  19.935  18.645  0.00  0.00    +0.090 C 
ATOM     43  C   UNL     1      44.212  20.367  19.845  0.00  0.00    +0.089 C 
ATOM     44  C   UNL     1      45.300  21.411  20.081  0.00  0.00    +0.076 C 
BRANCH  28  29
ATOM     29  O   UNL     1      48.120  21.424  22.505  0.00  0.00    -0.456 OA
ATOM     30  H   UNL     1      48.079  20.486  22.734  0.00  0.00    +0.400 HD
ENDBRANCH  28  29
BRANCH  32  33
ATOM     33  O   UNL     1      45.490  25.007  20.762  0.00  0.00    -0.472 OA
ATOM     34  H   UNL     1      44.578  25.283  20.927  0.00  0.00    +0.415 HD
ENDBRANCH  32  33
ENDBRANCH  26  27
BRANCH  24  23
ATOM      1  C   UNL     1      55.700  15.515  21.246  0.00  0.00    +0.095 C 
ATOM      2  C   UNL     1      54.315  16.099  21.357  0.00  0.00    -0.018 A 
ATOM      3  C   UNL     1      53.243  15.366  20.945  0.00  0.00    -0.043 A 
ATOM      4  C   UNL     1      51.950  15.899  21.044  0.00  0.00    +0.024 A 
ATOM      5  C   UNL     1      50.821  15.154  20.622  0.00  0.00    -0.059 A 
ATOM     22  C   UNL     1      49.558  15.703  20.732  0.00  0.00    +0.073 A 
ATOM     23  C   UNL     1      49.381  16.989  21.256  0.00  0.00    -0.095 A 
ATOM     57  C   UNL     1      50.474  17.738  21.676  0.00  0.00    +0.191 A 
ATOM     60  C   UNL     1      51.770  17.199  21.575  0.00  0.00    -0.105 A 
ATOM     61  C   UNL     1      52.897  17.936  21.994  0.00  0.00    +0.168 A 
ATOM     64  C   UNL     1      54.151  17.376  21.885  0.00  0.00    -0.098 A 
BRANCH   5   6
ATOM      6  C   UNL     1      50.994  13.792  20.065  0.00  0.00    -0.049 A 
ATOM      7  C   UNL     1      51.351  13.624  18.734  0.00  0.00    -0.045 A 
ATOM      8  C   UNL     1      51.514  12.339  18.211  0.00  0.00    -0.107 A 
ATOM      9  C   UNL     1      51.895  12.196  16.795  0.00  0.00    +0.212 C 
ATOM     10  C   UNL     1      52.490  10.904  16.298  0.00  0.00    +0.135 C 
ATOM     11  N   UNL     1      51.717  13.183  15.980  0.00  0.00    -0.507 NA
ATOM     12  C   UNL     1      51.130  14.449  16.409  0.00  0.00    +0.151 C 
ATOM     13  C   UNL     1      51.575  15.557  15.452  0.00  0.00    +0.054 C 
ATOM     14  C   UNL     1      51.317  11.222  19.025  0.00  0.00    +0.052 A 
ATOM     15  C   UNL     1      50.961  11.390  20.351  0.00  0.00    +0.079 A 
ATOM     18  C   UNL     1      51.568  14.808  17.828  0.00  0.00    +0.072 C 
ATOM     19  C   UNL     1      50.804  12.669  20.879  0.00  0.00    +0.117 A 
BRANCH  15  16
ATOM     16  O   UNL     1      50.769  10.302  21.144  0.00  0.00    -0.486 OA
ATOM     17  H   UNL     1      51.034  10.434  22.065  0.00  0.00    +0.395 HD
ENDBRANCH  15  16
BRANCH  19  20
ATOM     20  O   UNL     1      50.461  12.826  22.183  0.00  0.00    -0.483 OA
ATOM     21  H   UNL     1      50.043  13.676  22.380  0.00  0.00    +0.398 HD
ENDBRANCH  19  20
ENDBRANCH   5   6
BRANCH  57  58
ATOM     58  O   UNL     1      50.292  18.984  22.182  0.00  0.00    -0.463 OA
ATOM     59  H   UNL     1      51.045  19.577  22.049  0.00  0.00    +0.387 HD
ENDBRANCH  57  58
BRANCH  61  62
ATOM     62  O   UNL     1      52.747  19.185  22.505  0.00  0.00    -0.292 OA
ATOM     63  C   UNL     1      52.963  20.281  21.615  0.00  0.00    +0.243 C 
ENDBRANCH  61  62
ENDBRANCH  24  23
BRANCH  50  51
ATOM     51  O   UNL     1      44.752  15.068  22.299  0.00  0.00    -0.292 OA
ATOM     52  C   UNL     1      44.626  14.213  21.161  0.00  0.00    +0.243 C 
ENDBRANCH  50  51
BRANCH  54  55
ATOM     55  O   UNL     1      47.173  15.392  21.861  0.00  0.00    -0.465 OA
ATOM     56  H   UNL     1      48.005  15.193  22.310  0.00  0.00    +0.388 HD
ENDBRANCH  54  55
TORSDOF 11
ENDMDL
MODEL 5
REMARK VINA RESULT:      -1.7      3.584      7.438
REMARK  Name = ZINC95486192
REMARK  19 active torsions:
REMARK  status: ('A' for Active; 'I' for Inactive)
REMARK    1  A    between atoms: C1_1  and  C2_2
REMARK    2  A    between atoms: C5_5  and  C36_47
REMARK    3  A    between atoms: C7_7  and  C13_15
REMARK    4  A    between atoms: C8_8  and  O2_14
REMARK    5  A    between atoms: C10_10  and  O1_12
REMARK    6  A    between atoms: O1_12  and  C12_13
REMARK    7  A    between atoms: C15_17  and  C25_29
REMARK    8  A    between atoms: C18_20  and  C24_28
REMARK    9  A    between atoms: C20_22  and  O4_26
REMARK   10  A    between atoms: C22_24  and  O3_25
REMARK   11  A    between atoms: O4_26  and  C23_27
REMARK   12  A    between atoms: C26_30  and  O6_46
REMARK   13  A    between atoms: C28_32  and  O5_45
REMARK   14  A    between atoms: C32_38  and  C35_44
REMARK   15  A    between atoms: C33_41  and  C34_43
REMARK   16  A    between atoms: C40_51  and  O8_54
REMARK   17  A    between atoms: C41_52  and  O7_53
REMARK   18  A    between atoms: C42_55  and  C46_61
REMARK   19  A    between atoms: C43_57  and  C45_60
REMARK                            x       y       z     vdW  Elec       q    Type
REMARK                         _______ _______ _______ _____ _____    ______ ____
ROOT
ATOM     24  C   UNL     1      48.527  17.056  18.166  0.00  0.00    -0.094 A 
ATOM     25  C   UNL     1      49.004  15.742  18.110  0.00  0.00    +0.055 A 
ATOM     26  C   UNL     1      50.161  15.442  17.402  0.00  0.00    -0.038 A 
ATOM     45  C   UNL     1      50.873  16.521  16.716  0.00  0.00    +0.025 A 
ATOM     46  C   UNL     1      52.043  16.269  15.990  0.00  0.00    -0.030 A 
ATOM     47  C   UNL     1      52.686  17.293  15.360  0.00  0.00    -0.027 A 
ATOM     48  C   UNL     1      53.944  17.011  14.580  0.00  0.00    +0.092 C 
ATOM     49  C   UNL     1      52.198  18.594  15.425  0.00  0.00    -0.101 A 
ATOM     50  C   UNL     1      51.050  18.880  16.132  0.00  0.00    +0.167 A 
ATOM     53  C   UNL     1      50.365  17.840  16.791  0.00  0.00    -0.106 A 
ATOM     54  C   UNL     1      49.187  18.090  17.517  0.00  0.00    +0.189 A 
ENDROOT
BRANCH  26  27
ATOM     27  C   UNL     1      50.661  14.063  17.345  0.00  0.00    -0.179 C 
ATOM     28  C   UNL     1      51.729  13.681  18.096  0.00  0.00    +0.177 C 
ATOM     31  C   UNL     1      52.240  12.311  17.994  0.00  0.00    -0.140 C 
ATOM     32  C   UNL     1      51.925  11.551  16.931  0.00  0.00    +0.140 C 
ATOM     35  C   UNL     1      51.071  12.137  15.845  0.00  0.00    +0.061 C 
ATOM     36  C   UNL     1      50.369  11.063  15.019  0.00  0.00    +0.191 C 
ATOM     37  C   UNL     1      49.407  10.277  15.911  0.00  0.00    +0.094 C 
ATOM     38  N   UNL     1      49.616  11.711  13.934  0.00  0.00    -0.503 N 
ATOM     39  H   UNL     1      50.247  12.263  13.372  0.00  0.00    +0.426 HD
ATOM     40  H   UNL     1      49.188  11.004  13.355  0.00  0.00    +0.431 HD
ATOM     41  C   UNL     1      48.573  12.581  14.485  0.00  0.00    +0.159 C 
ATOM     42  C   UNL     1      47.783  13.208  13.335  0.00  0.00    +0.090 C 
ATOM     43  C   UNL     1      49.199  13.693  15.337  0.00  0.00    +0.089 C 
ATOM     44  C   UNL     1      50.000  13.043  16.463  0.00  0.00    +0.076 C 
BRANCH  28  29
ATOM     29  O   UNL     1      52.323  14.567  18.936  0.00  0.00    -0.456 OA
ATOM     30  H   UNL     1      51.772  14.828  19.686  0.00  0.00    +0.400 HD
ENDBRANCH  28  29
BRANCH  32  33
ATOM     33  O   UNL     1      52.372  10.277  16.842  0.00  0.00    -0.472 OA
ATOM     34  H   UNL     1      51.692   9.638  16.587  0.00  0.00    +0.415 HD
ENDBRANCH  32  33
ENDBRANCH  26  27
BRANCH  24  23
ATOM      1  C   UNL     1      41.878  17.487  22.505  0.00  0.00    +0.095 C 
ATOM      2  C   UNL     1      43.134  17.182  21.730  0.00  0.00    -0.018 A 
ATOM      3  C   UNL     1      43.788  18.192  21.089  0.00  0.00    -0.043 A 
ATOM      4  C   UNL     1      44.958  17.920  20.365  0.00  0.00    +0.024 A 
ATOM      5  C   UNL     1      45.655  18.955  19.692  0.00  0.00    -0.059 A 
ATOM     22  C   UNL     1      46.805  18.660  18.987  0.00  0.00    +0.073 A 
ATOM     23  C   UNL     1      47.290  17.348  18.929  0.00  0.00    -0.095 A 
ATOM     57  C   UNL     1      46.624  16.318  19.581  0.00  0.00    +0.191 A 
ATOM     60  C   UNL     1      45.450  16.594  20.307  0.00  0.00    -0.105 A 
ATOM     61  C   UNL     1      44.754  15.568  20.978  0.00  0.00    +0.168 A 
ATOM     64  C   UNL     1      43.611  15.876  21.684  0.00  0.00    -0.098 A 
BRANCH   5   6
ATOM      6  C   UNL     1      45.151  20.347  19.744  0.00  0.00    -0.049 A 
ATOM      7  C   UNL     1      45.927  21.349  20.311  0.00  0.00    -0.045 A 
ATOM      8  C   UNL     1      45.449  22.661  20.358  0.00  0.00    -0.107 A 
ATOM      9  C   UNL     1      46.300  23.700  20.964  0.00  0.00    +0.212 C 
ATOM     10  C   UNL     1      46.043  25.156  20.668  0.00  0.00    +0.135 C 
ATOM     11  N   UNL     1      47.267  23.360  21.751  0.00  0.00    -0.507 NA
ATOM     12  C   UNL     1      47.546  21.966  22.081  0.00  0.00    +0.151 C 
ATOM     13  C   UNL     1      49.010  21.835  22.505  0.00  0.00    +0.054 C 
ATOM     14  C   UNL     1      44.190  22.967  19.838  0.00  0.00    +0.052 A 
ATOM     15  C   UNL     1      43.417  21.968  19.274  0.00  0.00    +0.079 A 
ATOM     18  C   UNL     1      47.288  21.053  20.884  0.00  0.00    +0.072 C 
ATOM     19  C   UNL     1      43.892  20.660  19.218  0.00  0.00    +0.117 A 
BRANCH  15  16
ATOM     16  O   UNL     1      42.190  22.266  18.767  0.00  0.00    -0.486 OA
ATOM     17  H   UNL     1      42.169  23.074  18.238  0.00  0.00    +0.395 HD
ENDBRANCH  15  16
BRANCH  19  20
ATOM     20  O   UNL     1      43.129  19.686  18.658  0.00  0.00    -0.483 OA
ATOM     21  H   UNL     1      42.546  19.234  19.283  0.00  0.00    +0.398 HD
ENDBRANCH  19  20
ENDBRANCH   5   6
BRANCH  57  58
ATOM     58  O   UNL     1      47.103  15.050  19.518  0.00  0.00    -0.463 OA
ATOM     59  H   UNL     1      47.696  14.816  20.247  0.00  0.00    +0.387 HD
ENDBRANCH  57  58
BRANCH  61  62
ATOM     62  O   UNL     1      45.209  14.290  20.935  0.00  0.00    -0.292 OA
ATOM     63  C   UNL     1      45.190  13.553  22.159  0.00  0.00    +0.243 C 
ENDBRANCH  61  62
ENDBRANCH  24  23
BRANCH  50  51
ATOM     51  O   UNL     1      50.582  20.154  16.190  0.00  0.00    -0.292 OA
ATOM     52  C   UNL     1      51.548  21.204  16.112  0.00  0.00    +0.243 C 
ENDBRANCH  50  51
BRANCH  54  55
ATOM     55  O   UNL     1      48.693  19.354  17.587  0.00  0.00    -0.465 OA
ATOM     56  H   UNL     1      49.237  20.014  17.136  0.00  0.00    +0.388 HD
ENDBRANCH  54  55
TORSDOF 11
ENDMDL
MODEL 6
REMARK VINA RESULT:      -1.1      3.318      7.971
REMARK  Name = ZINC95486192
REMARK  19 active torsions:
REMARK  status: ('A' for Active; 'I' for Inactive)
REMARK    1  A    between atoms: C1_1  and  C2_2
REMARK    2  A    between atoms: C5_5  and  C36_47
REMARK    3  A    between atoms: C7_7  and  C13_15
REMARK    4  A    between atoms: C8_8  and  O2_14
REMARK    5  A    between atoms: C10_10  and  O1_12
REMARK    6  A    between atoms: O1_12  and  C12_13
REMARK    7  A    between atoms: C15_17  and  C25_29
REMARK    8  A    between atoms: C18_20  and  C24_28
REMARK    9  A    between atoms: C20_22  and  O4_26
REMARK   10  A    between atoms: C22_24  and  O3_25
REMARK   11  A    between atoms: O4_26  and  C23_27
REMARK   12  A    between atoms: C26_30  and  O6_46
REMARK   13  A    between atoms: C28_32  and  O5_45
REMARK   14  A    between atoms: C32_38  and  C35_44
REMARK   15  A    between atoms: C33_41  and  C34_43
REMARK   16  A    between atoms: C40_51  and  O8_54
REMARK   17  A    between atoms: C41_52  and  O7_53
REMARK   18  A    between atoms: C42_55  and  C46_61
REMARK   19  A    between atoms: C43_57  and  C45_60
REMARK                            x       y       z     vdW  Elec       q    Type
REMARK                         _______ _______ _______ _____ _____    ______ ____
ROOT
ATOM     24  C   UNL     1      47.724  17.601  19.622  0.00  0.00    -0.094 A 
ATOM     25  C   UNL     1      46.441  18.099  19.373  0.00  0.00    +0.055 A 
ATOM     26  C   UNL     1      46.072  19.357  19.830  0.00  0.00    -0.038 A 
ATOM     45  C   UNL     1      47.046  20.154  20.577  0.00  0.00    +0.025 A 
ATOM     46  C   UNL     1      46.721  21.428  21.059  0.00  0.00    -0.030 A 
ATOM     47  C   UNL     1      47.648  22.149  21.752  0.00  0.00    -0.027 A 
ATOM     48  C   UNL     1      47.289  23.519  22.268  0.00  0.00    +0.092 C 
ATOM     49  C   UNL     1      48.920  21.639  21.992  0.00  0.00    -0.101 A 
ATOM     50  C   UNL     1      49.275  20.390  21.532  0.00  0.00    +0.167 A 
ATOM     53  C   UNL     1      48.336  19.623  20.813  0.00  0.00    -0.106 A 
ATOM     54  C   UNL     1      48.659  18.342  20.333  0.00  0.00    +0.189 A 
ENDROOT
BRANCH  26  27
ATOM     27  C   UNL     1      44.725  19.879  19.567  0.00  0.00    -0.179 C 
ATOM     28  C   UNL     1      44.555  21.083  18.957  0.00  0.00    +0.177 C 
ATOM     31  C   UNL     1      43.202  21.606  18.740  0.00  0.00    -0.140 C 
ATOM     32  C   UNL     1      42.169  21.115  19.445  0.00  0.00    +0.140 C 
ATOM     35  C   UNL     1      42.427  20.051  20.472  0.00  0.00    +0.061 C 
ATOM     36  C   UNL     1      41.176  19.237  20.787  0.00  0.00    +0.191 C 
ATOM     37  C   UNL     1      40.721  18.488  19.532  0.00  0.00    +0.094 C 
ATOM     38  N   UNL     1      41.491  18.270  21.849  0.00  0.00    -0.503 N 
ATOM     39  H   UNL     1      41.831  18.764  22.661  0.00  0.00    +0.426 HD
ATOM     40  H   UNL     1      40.656  17.760  22.097  0.00  0.00    +0.431 HD
ATOM     41  C   UNL     1      42.516  17.326  21.394  0.00  0.00    +0.159 C 
ATOM     42  C   UNL     1      42.793  16.311  22.504  0.00  0.00    +0.090 C 
ATOM     43  C   UNL     1      43.813  18.070  21.051  0.00  0.00    +0.089 C 
ATOM     44  C   UNL     1      43.508  19.092  19.959  0.00  0.00    +0.076 C 
BRANCH  28  29
ATOM     29  O   UNL     1      45.634  21.799  18.552  0.00  0.00    -0.456 OA
ATOM     30  H   UNL     1      45.424  22.696  18.259  0.00  0.00    +0.400 HD
ENDBRANCH  28  29
BRANCH  32  33
ATOM     33  O   UNL     1      40.914  21.576  19.234  0.00  0.00    -0.472 OA
ATOM     34  H   UNL     1      40.475  21.902  20.031  0.00  0.00    +0.415 HD
ENDBRANCH  32  33
ENDBRANCH  26  27
BRANCH  24  23
ATOM      1  C   UNL     1      49.089  10.664  15.985  0.00  0.00    +0.095 C 
ATOM      2  C   UNL     1      48.711  12.033  16.488  0.00  0.00    -0.018 A 
ATOM      3  C   UNL     1      49.143  12.439  17.715  0.00  0.00    -0.043 A 
ATOM      4  C   UNL     1      48.797  13.711  18.194  0.00  0.00    +0.024 A 
ATOM      5  C   UNL     1      49.237  14.155  19.466  0.00  0.00    -0.059 A 
ATOM     22  C   UNL     1      48.882  15.413  19.913  0.00  0.00    +0.073 A 
ATOM     23  C   UNL     1      48.092  16.255  19.121  0.00  0.00    -0.095 A 
ATOM     57  C   UNL     1      47.650  15.842  17.871  0.00  0.00    +0.191 A 
ATOM     60  C   UNL     1      47.999  14.565  17.394  0.00  0.00    -0.105 A 
ATOM     61  C   UNL     1      47.565  14.119  16.128  0.00  0.00    +0.168 A 
ATOM     64  C   UNL     1      47.931  12.864  15.691  0.00  0.00    -0.098 A 
BRANCH   5   6
ATOM      6  C   UNL     1      50.072  13.273  20.313  0.00  0.00    -0.049 A 
ATOM      7  C   UNL     1      51.432  13.514  20.442  0.00  0.00    -0.045 A 
ATOM      8  C   UNL     1      52.218  12.680  21.242  0.00  0.00    -0.107 A 
ATOM      9  C   UNL     1      53.659  12.966  21.358  0.00  0.00    +0.212 C 
ATOM     10  C   UNL     1      54.454  12.394  22.503  0.00  0.00    +0.135 C 
ATOM     11  N   UNL     1      54.239  13.709  20.474  0.00  0.00    -0.507 NA
ATOM     12  C   UNL     1      53.517  14.273  19.338  0.00  0.00    +0.151 C 
ATOM     13  C   UNL     1      54.259  15.514  18.838  0.00  0.00    +0.054 C 
ATOM     14  C   UNL     1      51.636  11.603  21.913  0.00  0.00    +0.052 A 
ATOM     15  C   UNL     1      50.280  11.363  21.785  0.00  0.00    +0.079 A 
ATOM     18  C   UNL     1      52.093  14.666  19.729  0.00  0.00    +0.072 C 
ATOM     19  C   UNL     1      49.492  12.196  20.994  0.00  0.00    +0.117 A 
BRANCH  15  16
ATOM     16  O   UNL     1      49.713  10.314  22.438  0.00  0.00    -0.486 OA
ATOM     17  H   UNL     1      48.873  10.021  22.058  0.00  0.00    +0.395 HD
ENDBRANCH  15  16
BRANCH  19  20
ATOM     20  O   UNL     1      48.160  11.957  20.878  0.00  0.00    -0.483 OA
ATOM     21  H   UNL     1      47.830  11.271  21.474  0.00  0.00    +0.398 HD
ENDBRANCH  19  20
ENDBRANCH   5   6
BRANCH  57  58
ATOM     58  O   UNL     1      46.884  16.666  17.112  0.00  0.00    -0.463 OA
ATOM     59  H   UNL     1      45.941  16.637  17.328  0.00  0.00    +0.387 HD
ENDBRANCH  57  58
BRANCH  61  62
ATOM     62  O   UNL     1      46.799  14.921  15.345  0.00  0.00    -0.292 OA
ATOM     63  C   UNL     1      46.806  14.656  13.941  0.00  0.00    +0.243 C 
ENDBRANCH  61  62
ENDBRANCH  24  23
BRANCH  50  51
ATOM     51  O   UNL     1      50.520  19.901  21.771  0.00  0.00    -0.292 OA
ATOM     52  C   UNL     1      51.620  20.784  21.538  0.00  0.00    +0.243 C 
ENDBRANCH  50  51
BRANCH  54  55
ATOM     55  O   UNL     1      49.894  17.826  20.563  0.00  0.00    -0.465 OA
ATOM     56  H   UNL     1      49.914  17.139  21.242  0.00  0.00    +0.388 HD
ENDBRANCH  54  55
TORSDOF 11
ENDMDL
MODEL 7
REMARK VINA RESULT:      -1.1      3.677      7.832
REMARK  Name = ZINC95486192
REMARK  19 active torsions:
REMARK  status: ('A' for Active; 'I' for Inactive)
REMARK    1  A    between atoms: C1_1  and  C2_2
REMARK    2  A    between atoms: C5_5  and  C36_47
REMARK    3  A    between atoms: C7_7  and  C13_15
REMARK    4  A    between atoms: C8_8  and  O2_14
REMARK    5  A    between atoms: C10_10  and  O1_12
REMARK    6  A    between atoms: O1_12  and  C12_13
REMARK    7  A    between atoms: C15_17  and  C25_29
REMARK    8  A    between atoms: C18_20  and  C24_28
REMARK    9  A    between atoms: C20_22  and  O4_26
REMARK   10  A    between atoms: C22_24  and  O3_25
REMARK   11  A    between atoms: O4_26  and  C23_27
REMARK   12  A    between atoms: C26_30  and  O6_46
REMARK   13  A    between atoms: C28_32  and  O5_45
REMARK   14  A    between atoms: C32_38  and  C35_44
REMARK   15  A    between atoms: C33_41  and  C34_43
REMARK   16  A    between atoms: C40_51  and  O8_54
REMARK   17  A    between atoms: C41_52  and  O7_53
REMARK   18  A    between atoms: C42_55  and  C46_61
REMARK   19  A    between atoms: C43_57  and  C45_60
REMARK                            x       y       z     vdW  Elec       q    Type
REMARK                         _______ _______ _______ _____ _____    ______ ____
ROOT
ATOM     24  C   UNL     1      48.039  17.800  20.420  0.00  0.00    -0.094 A 
ATOM     25  C   UNL     1      48.322  16.709  19.593  0.00  0.00    +0.055 A 
ATOM     26  C   UNL     1      49.636  16.321  19.363  0.00  0.00    -0.038 A 
ATOM     45  C   UNL     1      50.719  17.072  19.998  0.00  0.00    +0.025 A 
ATOM     46  C   UNL     1      52.059  16.721  19.797  0.00  0.00    -0.030 A 
ATOM     47  C   UNL     1      53.049  17.439  20.401  0.00  0.00    -0.027 A 
ATOM     48  C   UNL     1      54.488  17.053  20.177  0.00  0.00    +0.092 C 
ATOM     49  C   UNL     1      52.750  18.522  21.220  0.00  0.00    -0.101 A 
ATOM     50  C   UNL     1      51.443  18.896  21.443  0.00  0.00    +0.167 A 
ATOM     53  C   UNL     1      50.401  18.173  20.830  0.00  0.00    -0.106 A 
ATOM     54  C   UNL     1      49.054  18.528  21.027  0.00  0.00    +0.189 A 
ENDROOT
BRANCH  26  27
ATOM     27  C   UNL     1      49.932  15.175  18.496  0.00  0.00    -0.179 C 
ATOM     28  C   UNL     1      50.156  15.350  17.165  0.00  0.00    +0.177 C 
ATOM     31  C   UNL     1      50.410  14.188  16.308  0.00  0.00    -0.140 C 
ATOM     32  C   UNL     1      50.064  12.958  16.722  0.00  0.00    +0.140 C 
ATOM     35  C   UNL     1      49.392  12.799  18.055  0.00  0.00    +0.061 C 
ATOM     36  C   UNL     1      49.546  11.389  18.615  0.00  0.00    +0.191 C 
ATOM     37  C   UNL     1      51.026  11.097  18.870  0.00  0.00    +0.094 C 
ATOM     38  N   UNL     1      48.801  11.293  19.880  0.00  0.00    -0.503 N 
ATOM     39  H   UNL     1      47.833  11.528  19.716  0.00  0.00    +0.426 HD
ATOM     40  H   UNL     1      48.858  10.349  20.233  0.00  0.00    +0.431 HD
ATOM     41  C   UNL     1      49.359  12.215  20.872  0.00  0.00    +0.159 C 
ATOM     42  C   UNL     1      48.591  12.065  22.187  0.00  0.00    +0.090 C 
ATOM     43  C   UNL     1      49.246  13.664  20.381  0.00  0.00    +0.089 C 
ATOM     44  C   UNL     1      50.001  13.784  19.059  0.00  0.00    +0.076 C 
BRANCH  28  29
ATOM     29  O   UNL     1      50.144  16.599  16.632  0.00  0.00    -0.456 OA
ATOM     30  H   UNL     1      50.907  17.139  16.878  0.00  0.00    +0.400 HD
ENDBRANCH  28  29
BRANCH  32  33
ATOM     33  O   UNL     1      50.316  11.877  15.947  0.00  0.00    -0.472 OA
ATOM     34  H   UNL     1      50.934  12.047  15.223  0.00  0.00    +0.415 HD
ENDBRANCH  32  33
ENDBRANCH  26  27
BRANCH  24  23
ATOM      1  C   UNL     1      40.343  18.845  22.122  0.00  0.00    +0.095 C 
ATOM      2  C   UNL     1      41.776  18.440  21.891  0.00  0.00    -0.018 A 
ATOM      3  C   UNL     1      42.633  19.316  21.295  0.00  0.00    -0.043 A 
ATOM      4  C   UNL     1      43.968  18.950  21.075  0.00  0.00    +0.024 A 
ATOM      5  C   UNL     1      44.877  19.847  20.458  0.00  0.00    -0.059 A 
ATOM     22  C   UNL     1      46.187  19.461  20.254  0.00  0.00    +0.073 A 
ATOM     23  C   UNL     1      46.628  18.192  20.650  0.00  0.00    -0.095 A 
ATOM     57  C   UNL     1      45.755  17.297  21.256  0.00  0.00    +0.191 A 
ATOM     60  C   UNL     1      44.416  17.668  21.476  0.00  0.00    -0.105 A 
ATOM     61  C   UNL     1      43.508  16.781  22.089  0.00  0.00    +0.168 A 
ATOM     64  C   UNL     1      42.205  17.179  22.294  0.00  0.00    -0.098 A 
BRANCH   5   6
ATOM      6  C   UNL     1      44.423  21.191  20.034  0.00  0.00    -0.049 A 
ATOM      7  C   UNL     1      45.191  22.310  20.323  0.00  0.00    -0.045 A 
ATOM      8  C   UNL     1      44.761  23.577  19.921  0.00  0.00    -0.107 A 
ATOM      9  C   UNL     1      45.602  24.743  20.242  0.00  0.00    +0.212 C 
ATOM     10  C   UNL     1      45.423  26.036  19.488  0.00  0.00    +0.135 C 
ATOM     11  N   UNL     1      46.495  24.654  21.172  0.00  0.00    -0.507 NA
ATOM     12  C   UNL     1      46.696  23.430  21.941  0.00  0.00    +0.151 C 
ATOM     13  C   UNL     1      48.119  23.420  22.503  0.00  0.00    +0.054 C 
ATOM     14  C   UNL     1      43.556  23.720  19.230  0.00  0.00    +0.052 A 
ATOM     15  C   UNL     1      42.790  22.605  18.942  0.00  0.00    +0.079 A 
ATOM     18  C   UNL     1      46.495  22.192  21.069  0.00  0.00    +0.072 C 
ATOM     19  C   UNL     1      43.219  21.339  19.335  0.00  0.00    +0.117 A 
BRANCH  15  16
ATOM     16  O   UNL     1      41.617  22.744  18.269  0.00  0.00    -0.486 OA
ATOM     17  H   UNL     1      41.535  23.579  17.788  0.00  0.00    +0.395 HD
ENDBRANCH  15  16
BRANCH  19  20
ATOM     20  O   UNL     1      42.465  20.249  19.044  0.00  0.00    -0.483 OA
ATOM     21  H   UNL     1      42.259  19.696  19.811  0.00  0.00    +0.398 HD
ENDBRANCH  19  20
ENDBRANCH   5   6
BRANCH  57  58
ATOM     58  O   UNL     1      46.193  16.070  21.635  0.00  0.00    -0.463 OA
ATOM     59  H   UNL     1      45.641  15.341  21.320  0.00  0.00    +0.387 HD
ENDBRANCH  57  58
BRANCH  61  62
ATOM     62  O   UNL     1      43.916  15.546  22.481  0.00  0.00    -0.292 OA
ATOM     63  C   UNL     1      44.206  14.601  21.449  0.00  0.00    +0.243 C 
ENDBRANCH  61  62
ENDBRANCH  24  23
BRANCH  50  51
ATOM     51  O   UNL     1      51.162  19.956  22.245  0.00  0.00    -0.292 OA
ATOM     52  C   UNL     1      51.375  21.259  21.697  0.00  0.00    +0.243 C 
ENDBRANCH  50  51
BRANCH  54  55
ATOM     55  O   UNL     1      48.745  19.586  21.820  0.00  0.00    -0.465 OA
ATOM     56  H   UNL     1      48.846  20.445  21.387  0.00  0.00    +0.388 HD
ENDBRANCH  54  55
TORSDOF 11
ENDMDL
MODEL 8
REMARK VINA RESULT:      -0.8      1.896      8.730
REMARK  Name = ZINC95486192
REMARK  19 active torsions:
REMARK  status: ('A' for Active; 'I' for Inactive)
REMARK    1  A    between atoms: C1_1  and  C2_2
REMARK    2  A    between atoms: C5_5  and  C36_47
REMARK    3  A    between atoms: C7_7  and  C13_15
REMARK    4  A    between atoms: C8_8  and  O2_14
REMARK    5  A    between atoms: C10_10  and  O1_12
REMARK    6  A    between atoms: O1_12  and  C12_13
REMARK    7  A    between atoms: C15_17  and  C25_29
REMARK    8  A    between atoms: C18_20  and  C24_28
REMARK    9  A    between atoms: C20_22  and  O4_26
REMARK   10  A    between atoms: C22_24  and  O3_25
REMARK   11  A    between atoms: O4_26  and  C23_27
REMARK   12  A    between atoms: C26_30  and  O6_46
REMARK   13  A    between atoms: C28_32  and  O5_45
REMARK   14  A    between atoms: C32_38  and  C35_44
REMARK   15  A    between atoms: C33_41  and  C34_43
REMARK   16  A    between atoms: C40_51  and  O8_54
REMARK   17  A    between atoms: C41_52  and  O7_53
REMARK   18  A    between atoms: C42_55  and  C46_61
REMARK   19  A    between atoms: C43_57  and  C45_60
REMARK                            x       y       z     vdW  Elec       q    Type
REMARK                         _______ _______ _______ _____ _____    ______ ____
ROOT
ATOM     24  C   UNL     1      48.714  15.075  20.062  0.00  0.00    -0.094 A 
ATOM     25  C   UNL     1      47.610  15.677  20.673  0.00  0.00    +0.055 A 
ATOM     26  C   UNL     1      46.322  15.240  20.391  0.00  0.00    -0.038 A 
ATOM     45  C   UNL     1      46.138  14.138  19.444  0.00  0.00    +0.025 A 
ATOM     46  C   UNL     1      44.861  13.662  19.127  0.00  0.00    -0.030 A 
ATOM     47  C   UNL     1      44.719  12.634  18.241  0.00  0.00    -0.027 A 
ATOM     48  C   UNL     1      43.340  12.129  17.906  0.00  0.00    +0.092 C 
ATOM     49  C   UNL     1      45.828  12.047  17.642  0.00  0.00    -0.101 A 
ATOM     50  C   UNL     1      47.101  12.489  17.931  0.00  0.00    +0.167 A 
ATOM     53  C   UNL     1      47.276  13.550  18.842  0.00  0.00    -0.106 A 
ATOM     54  C   UNL     1      48.558  14.033  19.158  0.00  0.00    +0.189 A 
ENDROOT
BRANCH  26  27
ATOM     27  C   UNL     1      45.164  15.871  21.034  0.00  0.00    -0.179 C 
ATOM     28  C   UNL     1      44.379  15.169  21.895  0.00  0.00    +0.177 C 
ATOM     31  C   UNL     1      43.203  15.805  22.495  0.00  0.00    -0.140 C 
ATOM     32  C   UNL     1      42.681  16.913  21.943  0.00  0.00    +0.140 C 
ATOM     35  C   UNL     1      43.301  17.466  20.693  0.00  0.00    +0.061 C 
ATOM     36  C   UNL     1      42.982  18.945  20.496  0.00  0.00    +0.191 C 
ATOM     37  C   UNL     1      43.586  19.758  21.642  0.00  0.00    +0.094 C 
ATOM     38  N   UNL     1      43.560  19.392  19.219  0.00  0.00    -0.503 N 
ATOM     39  H   UNL     1      43.191  18.825  18.469  0.00  0.00    +0.426 HD
ATOM     40  H   UNL     1      43.312  20.357  19.058  0.00  0.00    +0.431 HD
ATOM     41  C   UNL     1      45.020  19.265  19.247  0.00  0.00    +0.159 C 
ATOM     42  C   UNL     1      45.593  19.773  17.922  0.00  0.00    +0.090 C 
ATOM     43  C   UNL     1      45.426  17.800  19.447  0.00  0.00    +0.089 C 
ATOM     44  C   UNL     1      44.825  17.309  20.761  0.00  0.00    +0.076 C 
BRANCH  28  29
ATOM     29  O   UNL     1      44.683  13.880  22.196  0.00  0.00    -0.456 OA
ATOM     30  H   UNL     1      45.011  13.367  21.446  0.00  0.00    +0.400 HD
ENDBRANCH  28  29
BRANCH  32  33
ATOM     33  O   UNL     1      41.610  17.521  22.505  0.00  0.00    -0.472 OA
ATOM     34  H   UNL     1      41.665  17.606  23.467  0.00  0.00    +0.415 HD
ENDBRANCH  32  33
ENDBRANCH  26  27
BRANCH  24  23
ATOM      1  C   UNL     1      56.182  16.651  22.288  0.00  0.00    +0.095 C 
ATOM      2  C   UNL     1      54.797  16.150  21.968  0.00  0.00    -0.018 A 
ATOM      3  C   UNL     1      53.937  16.953  21.279  0.00  0.00    -0.043 A 
ATOM      4  C   UNL     1      52.646  16.498  20.975  0.00  0.00    +0.024 A 
ATOM      5  C   UNL     1      51.736  17.314  20.259  0.00  0.00    -0.059 A 
ATOM     22  C   UNL     1      50.471  16.841  19.972  0.00  0.00    +0.073 A 
ATOM     23  C   UNL     1      50.077  15.562  20.382  0.00  0.00    -0.095 A 
ATOM     57  C   UNL     1      50.953  14.743  21.084  0.00  0.00    +0.191 A 
ATOM     60  C   UNL     1      52.248  15.203  21.388  0.00  0.00    -0.105 A 
ATOM     61  C   UNL     1      53.157  14.394  22.099  0.00  0.00    +0.168 A 
ATOM     64  C   UNL     1      54.419  14.875  22.374  0.00  0.00    -0.098 A 
BRANCH   5   6
ATOM      6  C   UNL     1      52.140  18.671  19.821  0.00  0.00    -0.049 A 
ATOM      7  C   UNL     1      52.155  18.992  18.471  0.00  0.00    -0.045 A 
ATOM      8  C   UNL     1      52.536  20.272  18.061  0.00  0.00    -0.107 A 
ATOM      9  C   UNL     1      52.538  20.580  16.619  0.00  0.00    +0.212 C 
ATOM     10  C   UNL     1      52.518  22.013  16.152  0.00  0.00    +0.135 C 
ATOM     11  N   UNL     1      52.558  19.617  15.758  0.00  0.00    -0.507 NA
ATOM     12  C   UNL     1      52.594  18.215  16.160  0.00  0.00    +0.151 C 
ATOM     13  C   UNL     1      52.032  17.354  15.026  0.00  0.00    +0.054 C 
ATOM     14  C   UNL     1      52.904  21.230  19.007  0.00  0.00    +0.052 A 
ATOM     15  C   UNL     1      52.889  20.910  20.353  0.00  0.00    +0.079 A 
ATOM     18  C   UNL     1      51.767  17.981  17.423  0.00  0.00    +0.072 C 
ATOM     19  C   UNL     1      52.503  19.637  20.767  0.00  0.00    +0.117 A 
BRANCH  15  16
ATOM     16  O   UNL     1      53.247  21.842  21.275  0.00  0.00    -0.486 OA
ATOM     17  H   UNL     1      53.169  21.541  22.191  0.00  0.00    +0.395 HD
ENDBRANCH  15  16
BRANCH  19  20
ATOM     20  O   UNL     1      52.485  19.332  22.090  0.00  0.00    -0.483 OA
ATOM     21  H   UNL     1      53.328  19.483  22.540  0.00  0.00    +0.398 HD
ENDBRANCH  19  20
ENDBRANCH   5   6
BRANCH  57  58
ATOM     58  O   UNL     1      50.561  13.505  21.477  0.00  0.00    -0.463 OA
ATOM     59  H   UNL     1      49.789  13.503  22.061  0.00  0.00    +0.387 HD
ENDBRANCH  57  58
BRANCH  61  62
ATOM     62  O   UNL     1      52.795  13.150  22.505  0.00  0.00    -0.292 OA
ATOM     63  C   UNL     1      53.812  12.146  22.505  0.00  0.00    +0.243 C 
ENDBRANCH  61  62
ENDBRANCH  24  23
BRANCH  50  51
ATOM     51  O   UNL     1      48.177  11.908  17.340  0.00  0.00    -0.292 OA
ATOM     52  C   UNL     1      48.153  11.794  15.916  0.00  0.00    +0.243 C 
ENDBRANCH  50  51
BRANCH  54  55
ATOM     55  O   UNL     1      49.652  13.474  18.577  0.00  0.00    -0.465 OA
ATOM     56  H   UNL     1      50.473  13.959  18.736  0.00  0.00    +0.388 HD
ENDBRANCH  54  55
TORSDOF 11
ENDMDL
