MODEL 1
REMARK VINA RESULT:      -6.3      0.000      0.000
REMARK  Name = ZINC00900904
REMARK  8 active torsions:
REMARK  status: ('A' for Active; 'I' for Inactive)
REMARK    1  A    between atoms: C1_1  and  C2_2
REMARK    2  A    between atoms: C2_2  and  C3_4
REMARK    3  A    between atoms: C3_4  and  C4_5
REMARK    4  A    between atoms: C9_11  and  O3_15
REMARK    5  A    between atoms: C10_12  and  O2_13
REMARK    6  A    between atoms: O2_13  and  C11_14
REMARK    7  A    between atoms: O3_15  and  C12_16
REMARK    8  A    between atoms: N1_27  and  C23_28
REMARK                            x       y       z     vdW  Elec       q    Type
REMARK                         _______ _______ _______ _____ _____    ______ ____
ROOT
ATOM      4  C   UNL     1      46.653  18.405  20.362  0.00  0.00    +0.261 C 
ATOM      5  C   UNL     1      47.736  19.290  20.908  0.00  0.00    -0.085 A 
ATOM      6  C   UNL     1      47.524  20.662  21.052  0.00  0.00    -0.055 A 
ATOM      7  C   UNL     1      46.240  21.232  20.583  0.00  0.00    -0.091 A 
ATOM      8  C   UNL     1      45.955  22.592  20.772  0.00  0.00    +0.046 A 
ATOM      9  C   UNL     1      44.795  23.136  20.315  0.00  0.00    +0.013 A 
ATOM     10  C   UNL     1      43.822  22.320  19.707  0.00  0.00    -0.024 A 
ATOM     11  C   UNL     1      42.604  22.886  19.267  0.00  0.00    +0.045 A 
ATOM     12  C   UNL     1      41.656  22.028  18.777  0.00  0.00    +0.048 A 
ATOM     13  C   UNL     1      41.875  20.631  18.712  0.00  0.00    +0.033 A 
ATOM     14  O   UNL     1      40.747  20.045  18.244  0.00  0.00    -0.305 OA
ATOM     15  C   UNL     1      39.706  21.036  18.389  0.00  0.00    +0.435 C 
ATOM     16  C   UNL     1      43.065  20.067  19.079  0.00  0.00    +0.078 A 
ATOM     17  O   UNL     1      40.420  22.288  18.289  0.00  0.00    -0.305 OA
ATOM     18  C   UNL     1      44.074  20.933  19.558  0.00  0.00    -0.044 A 
ATOM     19  C   UNL     1      45.347  20.411  19.912  0.00  0.00    +0.156 A 
ATOM     20  C   UNL     1      48.502  21.466  21.632  0.00  0.00    +0.066 A 
ATOM     21  C   UNL     1      49.687  20.901  22.062  0.00  0.00    -0.055 A 
ATOM     22  C   UNL     1      49.918  19.547  21.895  0.00  0.00    +0.113 A 
ATOM     25  C   UNL     1      48.940  18.738  21.313  0.00  0.00    +0.077 A 
ATOM     28  N   UNL     1      45.637  19.104  19.593  0.00  0.00    -0.502 N 
ATOM     29  C   UNL     1      45.897  18.973  18.144  0.00  0.00    +0.235 C 
ENDROOT
BRANCH  22  23
ATOM     23  O   UNL     1      51.096  19.003  22.300  0.00  0.00    -0.304 OA
ATOM     24  C   UNL     1      52.292  19.677  21.905  0.00  0.00    +0.242 C 
ENDBRANCH  22  23
BRANCH  25  26
ATOM     26  O   UNL     1      49.176  17.405  21.148  0.00  0.00    -0.323 OA
ATOM     27  C   UNL     1      49.792  17.002  19.923  0.00  0.00    +0.224 C 
ENDBRANCH  25  26
BRANCH   4   3
ATOM      3  C   UNL     1      45.990  17.662  21.533  0.00  0.00    +0.046 C 
BRANCH   3   2
ATOM      1  C   UNL     1      43.406  17.302  21.630  0.00  0.00    +0.054 C 
ATOM      2  C   UNL     1      44.751  16.956  21.044  0.00  0.00    +0.361 C 
ATOM     30  O   UNL     1      44.836  16.115  20.182  0.00  0.00    -0.442 OA
ENDBRANCH   3   2
ENDBRANCH   4   3
TORSDOF 4
ENDMDL
MODEL 2
REMARK VINA RESULT:      -6.0      2.318      7.435
REMARK  Name = ZINC00900904
REMARK  8 active torsions:
REMARK  status: ('A' for Active; 'I' for Inactive)
REMARK    1  A    between atoms: C1_1  and  C2_2
REMARK    2  A    between atoms: C2_2  and  C3_4
REMARK    3  A    between atoms: C3_4  and  C4_5
REMARK    4  A    between atoms: C9_11  and  O3_15
REMARK    5  A    between atoms: C10_12  and  O2_13
REMARK    6  A    between atoms: O2_13  and  C11_14
REMARK    7  A    between atoms: O3_15  and  C12_16
REMARK    8  A    between atoms: N1_27  and  C23_28
REMARK                            x       y       z     vdW  Elec       q    Type
REMARK                         _______ _______ _______ _____ _____    ______ ____
ROOT
ATOM      4  C   UNL     1      46.226  17.594  20.032  0.00  0.00    +0.261 C 
ATOM      5  C   UNL     1      45.717  18.980  19.757  0.00  0.00    -0.085 A 
ATOM      6  C   UNL     1      46.593  19.989  19.351  0.00  0.00    -0.055 A 
ATOM      7  C   UNL     1      48.039  19.680  19.273  0.00  0.00    -0.091 A 
ATOM      8  C   UNL     1      48.947  20.640  18.802  0.00  0.00    +0.046 A 
ATOM      9  C   UNL     1      50.282  20.381  18.759  0.00  0.00    +0.013 A 
ATOM     10  C   UNL     1      50.768  19.110  19.118  0.00  0.00    -0.024 A 
ATOM     11  C   UNL     1      52.153  18.837  19.035  0.00  0.00    +0.045 A 
ATOM     12  C   UNL     1      52.556  17.556  19.299  0.00  0.00    +0.048 A 
ATOM     13  C   UNL     1      51.633  16.538  19.638  0.00  0.00    +0.033 A 
ATOM     14  O   UNL     1      52.314  15.376  19.781  0.00  0.00    -0.305 OA
ATOM     15  C   UNL     1      53.595  15.597  19.152  0.00  0.00    +0.435 C 
ATOM     16  C   UNL     1      50.296  16.790  19.779  0.00  0.00    +0.078 A 
ATOM     17  O   UNL     1      53.800  17.020  19.301  0.00  0.00    -0.305 OA
ATOM     18  C   UNL     1      49.857  18.113  19.545  0.00  0.00    -0.044 A 
ATOM     19  C   UNL     1      48.487  18.445  19.718  0.00  0.00    +0.156 A 
ATOM     20  C   UNL     1      46.106  21.251  19.021  0.00  0.00    +0.066 A 
ATOM     21  C   UNL     1      44.750  21.504  19.102  0.00  0.00    -0.055 A 
ATOM     22  C   UNL     1      43.878  20.520  19.533  0.00  0.00    +0.113 A 
ATOM     25  C   UNL     1      44.363  19.254  19.865  0.00  0.00    +0.077 A 
ATOM     28  N   UNL     1      47.651  17.521  20.304  0.00  0.00    -0.502 N 
ATOM     29  C   UNL     1      47.902  17.450  21.759  0.00  0.00    +0.235 C 
ENDROOT
BRANCH  22  23
ATOM     23  O   UNL     1      42.549  20.785  19.630  0.00  0.00    -0.304 OA
ATOM     24  C   UNL     1      41.757  20.569  18.461  0.00  0.00    +0.242 C 
ENDBRANCH  22  23
BRANCH  25  26
ATOM     26  O   UNL     1      43.500  18.290  20.293  0.00  0.00    -0.323 OA
ATOM     27  C   UNL     1      43.196  18.264  21.690  0.00  0.00    +0.224 C 
ENDBRANCH  25  26
BRANCH   4   3
ATOM      3  C   UNL     1      45.885  16.701  18.829  0.00  0.00    +0.046 C 
BRANCH   3   2
ATOM      1  C   UNL     1      45.057  15.065  20.688  0.00  0.00    +0.054 C 
ATOM      2  C   UNL     1      45.615  15.297  19.307  0.00  0.00    +0.361 C 
ATOM     30  O   UNL     1      45.844  14.358  18.583  0.00  0.00    -0.442 OA
ENDBRANCH   3   2
ENDBRANCH   4   3
TORSDOF 4
ENDMDL
MODEL 3
REMARK VINA RESULT:      -5.7      3.348      5.986
REMARK  Name = ZINC00900904
REMARK  8 active torsions:
REMARK  status: ('A' for Active; 'I' for Inactive)
REMARK    1  A    between atoms: C1_1  and  C2_2
REMARK    2  A    between atoms: C2_2  and  C3_4
REMARK    3  A    between atoms: C3_4  and  C4_5
REMARK    4  A    between atoms: C9_11  and  O3_15
REMARK    5  A    between atoms: C10_12  and  O2_13
REMARK    6  A    between atoms: O2_13  and  C11_14
REMARK    7  A    between atoms: O3_15  and  C12_16
REMARK    8  A    between atoms: N1_27  and  C23_28
REMARK                            x       y       z     vdW  Elec       q    Type
REMARK                         _______ _______ _______ _____ _____    ______ ____
ROOT
ATOM      4  C   UNL     1      50.269  18.020  18.591  0.00  0.00    +0.261 C 
ATOM      5  C   UNL     1      49.851  16.726  17.953  0.00  0.00    -0.085 A 
ATOM      6  C   UNL     1      48.499  16.428  17.774  0.00  0.00    -0.055 A 
ATOM      7  C   UNL     1      47.491  17.379  18.297  0.00  0.00    -0.091 A 
ATOM      8  C   UNL     1      46.124  17.156  18.078  0.00  0.00    +0.046 A 
ATOM      9  C   UNL     1      45.186  18.002  18.583  0.00  0.00    +0.013 A 
ATOM     10  C   UNL     1      45.579  19.163  19.274  0.00  0.00    -0.024 A 
ATOM     11  C   UNL     1      44.599  20.057  19.764  0.00  0.00    +0.045 A 
ATOM     12  C   UNL     1      45.041  21.218  20.338  0.00  0.00    +0.048 A 
ATOM     13  C   UNL     1      46.419  21.524  20.438  0.00  0.00    +0.033 A 
ATOM     14  O   UNL     1      46.543  22.754  20.991  0.00  0.00    -0.305 OA
ATOM     15  C   UNL     1      45.241  23.366  20.873  0.00  0.00    +0.435 C 
ATOM     16  C   UNL     1      47.387  20.651  20.023  0.00  0.00    +0.078 A 
ATOM     17  O   UNL     1      44.339  22.237  20.888  0.00  0.00    -0.305 OA
ATOM     18  C   UNL     1      46.959  19.429  19.456  0.00  0.00    -0.044 A 
ATOM     19  C   UNL     1      47.917  18.464  19.047  0.00  0.00    +0.156 A 
ATOM     20  C   UNL     1      48.119  15.265  17.110  0.00  0.00    +0.066 A 
ATOM     21  C   UNL     1      49.086  14.401  16.633  0.00  0.00    -0.055 A 
ATOM     22  C   UNL     1      50.428  14.673  16.832  0.00  0.00    +0.113 A 
ATOM     25  C   UNL     1      50.813  15.838  17.497  0.00  0.00    +0.077 A 
ATOM     28  N   UNL     1      49.236  18.654  19.393  0.00  0.00    -0.502 N 
ATOM     29  C   UNL     1      49.438  18.364  20.828  0.00  0.00    +0.235 C 
ENDROOT
BRANCH  22  23
ATOM     23  O   UNL     1      51.372  13.807  16.378  0.00  0.00    -0.304 OA
ATOM     24  C   UNL     1      51.459  13.626  14.963  0.00  0.00    +0.242 C 
ENDBRANCH  22  23
BRANCH  25  26
ATOM     26  O   UNL     1      52.137  16.099  17.694  0.00  0.00    -0.323 OA
ATOM     27  C   UNL     1      52.711  15.649  18.923  0.00  0.00    +0.224 C 
ENDBRANCH  25  26
BRANCH   4   3
ATOM      3  C   UNL     1      50.728  18.985  17.487  0.00  0.00    +0.046 C 
BRANCH   3   2
ATOM      1  C   UNL     1      51.462  21.238  18.584  0.00  0.00    +0.054 C 
ATOM      2  C   UNL     1      51.813  19.883  18.023  0.00  0.00    +0.361 C 
ATOM     30  O   UNL     1      52.964  19.516  18.006  0.00  0.00    -0.442 OA
ENDBRANCH   3   2
ENDBRANCH   4   3
TORSDOF 4
ENDMDL
MODEL 4
REMARK VINA RESULT:      -5.5      2.466      3.581
REMARK  Name = ZINC00900904
REMARK  8 active torsions:
REMARK  status: ('A' for Active; 'I' for Inactive)
REMARK    1  A    between atoms: C1_1  and  C2_2
REMARK    2  A    between atoms: C2_2  and  C3_4
REMARK    3  A    between atoms: C3_4  and  C4_5
REMARK    4  A    between atoms: C9_11  and  O3_15
REMARK    5  A    between atoms: C10_12  and  O2_13
REMARK    6  A    between atoms: O2_13  and  C11_14
REMARK    7  A    between atoms: O3_15  and  C12_16
REMARK    8  A    between atoms: N1_27  and  C23_28
REMARK                            x       y       z     vdW  Elec       q    Type
REMARK                         _______ _______ _______ _____ _____    ______ ____
ROOT
ATOM      4  C   UNL     1      48.154  16.231  18.410  0.00  0.00    +0.261 C 
ATOM      5  C   UNL     1      49.556  16.702  18.669  0.00  0.00    -0.085 A 
ATOM      6  C   UNL     1      49.801  18.019  19.061  0.00  0.00    -0.055 A 
ATOM      7  C   UNL     1      48.657  18.957  19.139  0.00  0.00    -0.091 A 
ATOM      8  C   UNL     1      48.845  20.270  19.595  0.00  0.00    +0.046 A 
ATOM      9  C   UNL     1      47.810  21.151  19.639  0.00  0.00    +0.013 A 
ATOM     10  C   UNL     1      46.511  20.735  19.295  0.00  0.00    -0.024 A 
ATOM     11  C   UNL     1      45.434  21.648  19.378  0.00  0.00    +0.045 A 
ATOM     12  C   UNL     1      44.180  21.160  19.129  0.00  0.00    +0.048 A 
ATOM     13  C   UNL     1      43.957  19.801  18.805  0.00  0.00    +0.033 A 
ATOM     14  O   UNL     1      42.623  19.607  18.675  0.00  0.00    -0.305 OA
ATOM     15  C   UNL     1      42.002  20.751  19.298  0.00  0.00    +0.435 C 
ATOM     16  C   UNL     1      44.987  18.912  18.664  0.00  0.00    +0.078 A 
ATOM     17  O   UNL     1      42.984  21.798  19.131  0.00  0.00    -0.305 OA
ATOM     18  C   UNL     1      46.297  19.396  18.883  0.00  0.00    -0.044 A 
ATOM     19  C   UNL     1      47.410  18.532  18.708  0.00  0.00    +0.156 A 
ATOM     20  C   UNL     1      51.094  18.429  19.376  0.00  0.00    +0.066 A 
ATOM     21  C   UNL     1      52.137  17.527  19.295  0.00  0.00    -0.055 A 
ATOM     22  C   UNL     1      51.909  16.227  18.878  0.00  0.00    +0.113 A 
ATOM     25  C   UNL     1      50.614  15.813  18.561  0.00  0.00    +0.077 A 
ATOM     28  N   UNL     1      47.205  17.297  18.136  0.00  0.00    -0.502 N 
ATOM     29  C   UNL     1      46.980  17.434  16.682  0.00  0.00    +0.235 C 
ENDROOT
BRANCH  22  23
ATOM     23  O   UNL     1      52.944  15.353  18.781  0.00  0.00    -0.304 OA
ATOM     24  C   UNL     1      54.134  15.673  19.503  0.00  0.00    +0.242 C 
ENDBRANCH  22  23
BRANCH  25  26
ATOM     26  O   UNL     1      50.396  14.533  18.147  0.00  0.00    -0.323 OA
ATOM     27  C   UNL     1      50.554  14.266  16.752  0.00  0.00    +0.224 C 
ENDBRANCH  25  26
BRANCH   4   3
ATOM      3  C   UNL     1      47.678  15.419  19.626  0.00  0.00    +0.046 C 
BRANCH   3   2
ATOM      1  C   UNL     1      45.166  15.516  20.331  0.00  0.00    +0.054 C 
ATOM      2  C   UNL     1      46.246  14.995  19.417  0.00  0.00    +0.361 C 
ATOM     30  O   UNL     1      45.964  14.241  18.517  0.00  0.00    -0.442 OA
ENDBRANCH   3   2
ENDBRANCH   4   3
TORSDOF 4
ENDMDL
MODEL 5
REMARK VINA RESULT:      -5.5      1.411      1.724
REMARK  Name = ZINC00900904
REMARK  8 active torsions:
REMARK  status: ('A' for Active; 'I' for Inactive)
REMARK    1  A    between atoms: C1_1  and  C2_2
REMARK    2  A    between atoms: C2_2  and  C3_4
REMARK    3  A    between atoms: C3_4  and  C4_5
REMARK    4  A    between atoms: C9_11  and  O3_15
REMARK    5  A    between atoms: C10_12  and  O2_13
REMARK    6  A    between atoms: O2_13  and  C11_14
REMARK    7  A    between atoms: O3_15  and  C12_16
REMARK    8  A    between atoms: N1_27  and  C23_28
REMARK                            x       y       z     vdW  Elec       q    Type
REMARK                         _______ _______ _______ _____ _____    ______ ____
ROOT
ATOM      4  C   UNL     1      46.921  17.272  19.685  0.00  0.00    +0.261 C 
ATOM      5  C   UNL     1      48.167  17.863  20.280  0.00  0.00    -0.085 A 
ATOM      6  C   UNL     1      48.200  19.204  20.666  0.00  0.00    -0.055 A 
ATOM      7  C   UNL     1      47.010  20.045  20.403  0.00  0.00    -0.091 A 
ATOM      8  C   UNL     1      46.971  21.378  20.836  0.00  0.00    +0.046 A 
ATOM      9  C   UNL     1      45.899  22.171  20.570  0.00  0.00    +0.013 A 
ATOM     10  C   UNL     1      44.771  21.641  19.916  0.00  0.00    -0.024 A 
ATOM     11  C   UNL     1      43.645  22.462  19.676  0.00  0.00    +0.045 A 
ATOM     12  C   UNL     1      42.541  21.866  19.129  0.00  0.00    +0.048 A 
ATOM     13  C   UNL     1      42.514  20.486  18.817  0.00  0.00    +0.033 A 
ATOM     14  O   UNL     1      41.280  20.179  18.351  0.00  0.00    -0.305 OA
ATOM     15  C   UNL     1      40.433  21.281  18.740  0.00  0.00    +0.435 C 
ATOM     16  C   UNL     1      43.608  19.683  18.988  0.00  0.00    +0.078 A 
ATOM     17  O   UNL     1      41.343  22.401  18.791  0.00  0.00    -0.305 OA
ATOM     18  C   UNL     1      44.774  20.280  19.520  0.00  0.00    -0.044 A 
ATOM     19  C   UNL     1      45.956  19.508  19.679  0.00  0.00    +0.156 A 
ATOM     20  C   UNL     1      49.329  19.727  21.290  0.00  0.00    +0.066 A 
ATOM     21  C   UNL     1      50.422  18.914  21.523  0.00  0.00    -0.055 A 
ATOM     22  C   UNL     1      50.409  17.591  21.117  0.00  0.00    +0.113 A 
ATOM     25  C   UNL     1      49.279  17.064  20.491  0.00  0.00    +0.077 A 
ATOM     28  N   UNL     1      46.001  18.248  19.127  0.00  0.00    -0.502 N 
ATOM     29  C   UNL     1      46.159  18.335  17.660  0.00  0.00    +0.235 C 
ENDROOT
BRANCH  22  23
ATOM     23  O   UNL     1      51.496  16.804  21.331  0.00  0.00    -0.304 OA
ATOM     24  C   UNL     1      52.770  17.350  20.985  0.00  0.00    +0.242 C 
ENDBRANCH  22  23
BRANCH  25  26
ATOM     26  O   UNL     1      49.274  15.761  20.090  0.00  0.00    -0.323 OA
ATOM     27  C   UNL     1      49.771  15.484  18.778  0.00  0.00    +0.224 C 
ENDBRANCH  25  26
BRANCH   4   3
ATOM      3  C   UNL     1      46.204  16.449  20.767  0.00  0.00    +0.046 C 
BRANCH   3   2
ATOM      1  C   UNL     1      45.755  13.897  21.086  0.00  0.00    +0.054 C 
ATOM      2  C   UNL     1      45.799  15.113  20.197  0.00  0.00    +0.361 C 
ATOM     30  O   UNL     1      45.508  15.018  19.029  0.00  0.00    -0.442 OA
ENDBRANCH   3   2
ENDBRANCH   4   3
TORSDOF 4
ENDMDL
MODEL 6
REMARK VINA RESULT:      -5.3      3.627      5.559
REMARK  Name = ZINC00900904
REMARK  8 active torsions:
REMARK  status: ('A' for Active; 'I' for Inactive)
REMARK    1  A    between atoms: C1_1  and  C2_2
REMARK    2  A    between atoms: C2_2  and  C3_4
REMARK    3  A    between atoms: C3_4  and  C4_5
REMARK    4  A    between atoms: C9_11  and  O3_15
REMARK    5  A    between atoms: C10_12  and  O2_13
REMARK    6  A    between atoms: O2_13  and  C11_14
REMARK    7  A    between atoms: O3_15  and  C12_16
REMARK    8  A    between atoms: N1_27  and  C23_28
REMARK                            x       y       z     vdW  Elec       q    Type
REMARK                         _______ _______ _______ _____ _____    ______ ____
ROOT
ATOM      4  C   UNL     1      47.767  15.444  18.191  0.00  0.00    +0.261 C 
ATOM      5  C   UNL     1      49.120  15.533  17.544  0.00  0.00    -0.085 A 
ATOM      6  C   UNL     1      49.869  16.708  17.626  0.00  0.00    -0.055 A 
ATOM      7  C   UNL     1      49.267  17.884  18.297  0.00  0.00    -0.091 A 
ATOM      8  C   UNL     1      50.008  19.062  18.466  0.00  0.00    +0.046 A 
ATOM      9  C   UNL     1      49.457  20.161  19.048  0.00  0.00    +0.013 A 
ATOM     10  C   UNL     1      48.148  20.107  19.562  0.00  0.00    -0.024 A 
ATOM     11  C   UNL     1      47.594  21.241  20.199  0.00  0.00    +0.045 A 
ATOM     12  C   UNL     1      46.357  21.099  20.768  0.00  0.00    +0.048 A 
ATOM     13  C   UNL     1      45.655  19.871  20.730  0.00  0.00    +0.033 A 
ATOM     14  O   UNL     1      44.500  20.020  21.422  0.00  0.00    -0.305 OA
ATOM     15  C   UNL     1      44.672  21.216  22.211  0.00  0.00    +0.435 C 
ATOM     16  C   UNL     1      46.144  18.776  20.073  0.00  0.00    +0.078 A 
ATOM     17  O   UNL     1      45.596  22.004  21.428  0.00  0.00    -0.305 OA
ATOM     18  C   UNL     1      47.405  18.905  19.447  0.00  0.00    -0.044 A 
ATOM     19  C   UNL     1      47.946  17.817  18.711  0.00  0.00    +0.156 A 
ATOM     20  C   UNL     1      51.154  16.761  17.094  0.00  0.00    +0.066 A 
ATOM     21  C   UNL     1      51.686  15.644  16.477  0.00  0.00    -0.055 A 
ATOM     22  C   UNL     1      50.939  14.484  16.364  0.00  0.00    +0.113 A 
ATOM     25  C   UNL     1      49.650  14.429  16.896  0.00  0.00    +0.077 A 
ATOM     28  N   UNL     1      47.142  16.729  18.455  0.00  0.00    -0.502 N 
ATOM     29  C   UNL     1      46.155  17.054  17.404  0.00  0.00    +0.235 C 
ENDROOT
BRANCH  22  23
ATOM     23  O   UNL     1      51.462  13.398  15.737  0.00  0.00    -0.304 OA
ATOM     24  C   UNL     1      51.772  13.537  14.349  0.00  0.00    +0.242 C 
ENDBRANCH  22  23
BRANCH  25  26
ATOM     26  O   UNL     1      48.918  13.285  16.778  0.00  0.00    -0.323 OA
ATOM     27  C   UNL     1      48.138  13.133  15.590  0.00  0.00    +0.224 C 
ENDBRANCH  25  26
BRANCH   4   3
ATOM      3  C   UNL     1      47.905  14.660  19.506  0.00  0.00    +0.046 C 
BRANCH   3   2
ATOM      1  C   UNL     1      45.518  13.624  19.289  0.00  0.00    +0.054 C 
ATOM      2  C   UNL     1      46.536  14.403  20.083  0.00  0.00    +0.361 C 
ATOM     30  O   UNL     1      46.256  14.819  21.181  0.00  0.00    -0.442 OA
ENDBRANCH   3   2
ENDBRANCH   4   3
TORSDOF 4
ENDMDL
MODEL 7
REMARK VINA RESULT:      -5.3      4.149      8.200
REMARK  Name = ZINC00900904
REMARK  8 active torsions:
REMARK  status: ('A' for Active; 'I' for Inactive)
REMARK    1  A    between atoms: C1_1  and  C2_2
REMARK    2  A    between atoms: C2_2  and  C3_4
REMARK    3  A    between atoms: C3_4  and  C4_5
REMARK    4  A    between atoms: C9_11  and  O3_15
REMARK    5  A    between atoms: C10_12  and  O2_13
REMARK    6  A    between atoms: O2_13  and  C11_14
REMARK    7  A    between atoms: O3_15  and  C12_16
REMARK    8  A    between atoms: N1_27  and  C23_28
REMARK                            x       y       z     vdW  Elec       q    Type
REMARK                         _______ _______ _______ _____ _____    ______ ____
ROOT
ATOM      4  C   UNL     1      47.269  17.460  18.985  0.00  0.00    +0.261 C 
ATOM      5  C   UNL     1      46.091  17.231  19.888  0.00  0.00    -0.085 A 
ATOM      6  C   UNL     1      45.502  15.969  19.979  0.00  0.00    -0.055 A 
ATOM      7  C   UNL     1      46.015  14.886  19.108  0.00  0.00    -0.091 A 
ATOM      8  C   UNL     1      45.502  13.585  19.215  0.00  0.00    +0.046 A 
ATOM      9  C   UNL     1      45.939  12.590  18.398  0.00  0.00    +0.013 A 
ATOM     10  C   UNL     1      46.974  12.834  17.476  0.00  0.00    -0.024 A 
ATOM     11  C   UNL     1      47.448  11.785  16.655  0.00  0.00    +0.045 A 
ATOM     12  C   UNL     1      48.523  12.055  15.852  0.00  0.00    +0.048 A 
ATOM     13  C   UNL     1      49.144  13.327  15.838  0.00  0.00    +0.033 A 
ATOM     14  O   UNL     1      50.206  13.272  14.998  0.00  0.00    -0.305 OA
ATOM     15  C   UNL     1      50.469  11.867  14.796  0.00  0.00    +0.435 C 
ATOM     16  C   UNL     1      48.669  14.373  16.580  0.00  0.00    +0.078 A 
ATOM     17  O   UNL     1      49.173  11.255  14.973  0.00  0.00    -0.305 OA
ATOM     18  C   UNL     1      47.539  14.131  17.394  0.00  0.00    -0.044 A 
ATOM     19  C   UNL     1      46.974  15.189  18.154  0.00  0.00    +0.156 A 
ATOM     20  C   UNL     1      44.462  15.742  20.876  0.00  0.00    +0.066 A 
ATOM     21  C   UNL     1      44.010  16.774  21.675  0.00  0.00    -0.055 A 
ATOM     22  C   UNL     1      44.567  18.037  21.571  0.00  0.00    +0.113 A 
ATOM     25  C   UNL     1      45.610  18.268  20.672  0.00  0.00    +0.077 A 
ATOM     28  N   UNL     1      47.415  16.474  17.928  0.00  0.00    -0.502 N 
ATOM     29  C   UNL     1      46.869  16.988  16.655  0.00  0.00    +0.235 C 
ENDROOT
BRANCH  22  23
ATOM     23  O   UNL     1      44.102  19.052  22.346  0.00  0.00    -0.304 OA
ATOM     24  C   UNL     1      42.685  19.153  22.499  0.00  0.00    +0.242 C 
ENDBRANCH  22  23
BRANCH  25  26
ATOM     26  O   UNL     1      46.152  19.514  20.571  0.00  0.00    -0.323 OA
ATOM     27  C   UNL     1      45.512  20.430  19.680  0.00  0.00    +0.224 C 
ENDBRANCH  25  26
BRANCH   4   3
ATOM      3  C   UNL     1      48.545  17.489  19.842  0.00  0.00    +0.046 C 
BRANCH   3   2
ATOM      1  C   UNL     1      49.425  19.736  18.845  0.00  0.00    +0.054 C 
ATOM      2  C   UNL     1      49.617  18.266  19.121  0.00  0.00    +0.361 C 
ATOM     30  O   UNL     1      50.629  17.711  18.765  0.00  0.00    -0.442 OA
ENDBRANCH   3   2
ENDBRANCH   4   3
TORSDOF 4
ENDMDL
MODEL 8
REMARK VINA RESULT:      -5.2      2.286      2.583
REMARK  Name = ZINC00900904
REMARK  8 active torsions:
REMARK  status: ('A' for Active; 'I' for Inactive)
REMARK    1  A    between atoms: C1_1  and  C2_2
REMARK    2  A    between atoms: C2_2  and  C3_4
REMARK    3  A    between atoms: C3_4  and  C4_5
REMARK    4  A    between atoms: C9_11  and  O3_15
REMARK    5  A    between atoms: C10_12  and  O2_13
REMARK    6  A    between atoms: O2_13  and  C11_14
REMARK    7  A    between atoms: O3_15  and  C12_16
REMARK    8  A    between atoms: N1_27  and  C23_28
REMARK                            x       y       z     vdW  Elec       q    Type
REMARK                         _______ _______ _______ _____ _____    ______ ____
ROOT
ATOM      4  C   UNL     1      47.825  17.604  19.593  0.00  0.00    +0.261 C 
ATOM      5  C   UNL     1      48.777  18.657  19.103  0.00  0.00    -0.085 A 
ATOM      6  C   UNL     1      48.335  19.962  18.878  0.00  0.00    -0.055 A 
ATOM      7  C   UNL     1      46.896  20.262  19.059  0.00  0.00    -0.091 A 
ATOM      8  C   UNL     1      46.420  21.573  18.913  0.00  0.00    +0.046 A 
ATOM      9  C   UNL     1      45.096  21.856  19.042  0.00  0.00    +0.013 A 
ATOM     10  C   UNL     1      44.187  20.843  19.401  0.00  0.00    -0.024 A 
ATOM     11  C   UNL     1      42.817  21.153  19.569  0.00  0.00    +0.045 A 
ATOM     12  C   UNL     1      41.999  20.151  20.016  0.00  0.00    +0.048 A 
ATOM     13  C   UNL     1      42.493  18.856  20.305  0.00  0.00    +0.033 A 
ATOM     14  O   UNL     1      41.470  18.107  20.781  0.00  0.00    -0.305 OA
ATOM     15  C   UNL     1      40.439  19.048  21.150  0.00  0.00    +0.435 C 
ATOM     16  C   UNL     1      43.801  18.517  20.097  0.00  0.00    +0.078 A 
ATOM     17  O   UNL     1      40.667  20.161  20.258  0.00  0.00    -0.305 OA
ATOM     18  C   UNL     1      44.663  19.524  19.604  0.00  0.00    -0.044 A 
ATOM     19  C   UNL     1      46.022  19.220  19.326  0.00  0.00    +0.156 A 
ATOM     20  C   UNL     1      49.237  20.953  18.499  0.00  0.00    +0.066 A 
ATOM     21  C   UNL     1      50.573  20.639  18.342  0.00  0.00    -0.055 A 
ATOM     22  C   UNL     1      51.015  19.342  18.533  0.00  0.00    +0.113 A 
ATOM     25  C   UNL     1      50.113  18.346  18.912  0.00  0.00    +0.077 A 
ATOM     28  N   UNL     1      46.424  17.903  19.353  0.00  0.00    -0.502 N 
ATOM     29  C   UNL     1      45.936  17.192  18.154  0.00  0.00    +0.235 C 
ENDROOT
BRANCH  22  23
ATOM     23  O   UNL     1      52.328  19.037  18.355  0.00  0.00    -0.304 OA
ATOM     24  C   UNL     1      53.275  20.076  18.612  0.00  0.00    +0.242 C 
ENDBRANCH  22  23
BRANCH  25  26
ATOM     26  O   UNL     1      50.554  17.069  19.095  0.00  0.00    -0.323 OA
ATOM     27  C   UNL     1      50.590  16.223  17.943  0.00  0.00    +0.224 C 
ENDBRANCH  25  26
BRANCH   4   3
ATOM      3  C   UNL     1      48.057  17.398  21.099  0.00  0.00    +0.046 C 
BRANCH   3   2
ATOM      1  C   UNL     1      46.001  16.610  22.502  0.00  0.00    +0.054 C 
ATOM      2  C   UNL     1      47.164  16.290  21.597  0.00  0.00    +0.361 C 
ATOM     30  O   UNL     1      47.378  15.148  21.270  0.00  0.00    -0.442 OA
ENDBRANCH   3   2
ENDBRANCH   4   3
TORSDOF 4
ENDMDL
MODEL 9
REMARK VINA RESULT:      -5.1      2.581      4.930
REMARK  Name = ZINC00900904
REMARK  8 active torsions:
REMARK  status: ('A' for Active; 'I' for Inactive)
REMARK    1  A    between atoms: C1_1  and  C2_2
REMARK    2  A    between atoms: C2_2  and  C3_4
REMARK    3  A    between atoms: C3_4  and  C4_5
REMARK    4  A    between atoms: C9_11  and  O3_15
REMARK    5  A    between atoms: C10_12  and  O2_13
REMARK    6  A    between atoms: O2_13  and  C11_14
REMARK    7  A    between atoms: O3_15  and  C12_16
REMARK    8  A    between atoms: N1_27  and  C23_28
REMARK                            x       y       z     vdW  Elec       q    Type
REMARK                         _______ _______ _______ _____ _____    ______ ____
ROOT
ATOM      4  C   UNL     1      49.636  18.971  19.380  0.00  0.00    +0.261 C 
ATOM      5  C   UNL     1      49.580  17.471  19.403  0.00  0.00    -0.085 A 
ATOM      6  C   UNL     1      48.352  16.807  19.413  0.00  0.00    -0.055 A 
ATOM      7  C   UNL     1      47.113  17.616  19.477  0.00  0.00    -0.091 A 
ATOM      8  C   UNL     1      45.856  16.997  19.417  0.00  0.00    +0.046 A 
ATOM      9  C   UNL     1      44.711  17.724  19.511  0.00  0.00    +0.013 A 
ATOM     10  C   UNL     1      44.769  19.128  19.594  0.00  0.00    -0.024 A 
ATOM     11  C   UNL     1      43.573  19.880  19.655  0.00  0.00    +0.045 A 
ATOM     12  C   UNL     1      43.689  21.243  19.632  0.00  0.00    +0.048 A 
ATOM     13  C   UNL     1      44.947  21.885  19.548  0.00  0.00    +0.033 A 
ATOM     14  O   UNL     1      44.740  23.222  19.485  0.00  0.00    -0.305 OA
ATOM     15  C   UNL     1      43.348  23.383  19.137  0.00  0.00    +0.435 C 
ATOM     16  C   UNL     1      46.120  21.181  19.546  0.00  0.00    +0.078 A 
ATOM     17  O   UNL     1      42.728  22.198  19.683  0.00  0.00    -0.305 OA
ATOM     18  C   UNL     1      46.031  19.771  19.602  0.00  0.00    -0.044 A 
ATOM     19  C   UNL     1      47.215  18.988  19.647  0.00  0.00    +0.156 A 
ATOM     20  C   UNL     1      48.304  15.417  19.354  0.00  0.00    +0.066 A 
ATOM     21  C   UNL     1      49.479  14.693  19.292  0.00  0.00    -0.055 A 
ATOM     22  C   UNL     1      50.702  15.341  19.313  0.00  0.00    +0.113 A 
ATOM     25  C   UNL     1      50.754  16.734  19.372  0.00  0.00    +0.077 A 
ATOM     28  N   UNL     1      48.422  19.624  19.836  0.00  0.00    -0.502 N 
ATOM     29  C   UNL     1      48.559  20.058  21.243  0.00  0.00    +0.235 C 
ENDROOT
BRANCH  22  23
ATOM     23  O   UNL     1      51.854  14.620  19.273  0.00  0.00    -0.304 OA
ATOM     24  C   UNL     1      52.162  13.826  20.421  0.00  0.00    +0.242 C 
ENDBRANCH  22  23
BRANCH  25  26
ATOM     26  O   UNL     1      51.962  17.366  19.397  0.00  0.00    -0.323 OA
ATOM     27  C   UNL     1      52.548  17.596  20.680  0.00  0.00    +0.224 C 
ENDBRANCH  25  26
BRANCH   4   3
ATOM      3  C   UNL     1      49.958  19.426  17.947  0.00  0.00    +0.046 C 
BRANCH   3   2
ATOM      1  C   UNL     1      51.474  21.153  16.707  0.00  0.00    +0.054 C 
ATOM      2  C   UNL     1      50.997  20.518  17.989  0.00  0.00    +0.361 C 
ATOM     30  O   UNL     1      51.445  20.885  19.048  0.00  0.00    -0.442 OA
ENDBRANCH   3   2
ENDBRANCH   4   3
TORSDOF 4
ENDMDL
