MODEL 1
REMARK VINA RESULT:      -6.7      0.000      0.000
REMARK  Name = ZINC95485885
REMARK  20 active torsions:
REMARK  status: ('A' for Active; 'I' for Inactive)
REMARK    1  A    between atoms: C1_1  and  C2_2
REMARK    2  A    between atoms: C2_2  and  C3_3
REMARK    3  A    between atoms: C2_2  and  C4_4
REMARK    4  A    between atoms: C4_4  and  C5_6
REMARK    5  A    between atoms: C6_7  and  O7_40
REMARK    6  A    between atoms: C7_8  and  C21_24
REMARK    7  A    between atoms: C8_9  and  O3_23
REMARK    8  A    between atoms: C11_13  and  C14_16
REMARK    9  A    between atoms: C11_13  and  C15_17
REMARK   10  A    between atoms: C15_17  and  C16_18
REMARK   11  A    between atoms: C16_18  and  C17_19
REMARK   12  A    between atoms: C18_20  and  C19_21
REMARK   13  A    between atoms: C18_20  and  C20_22
REMARK   14  A    between atoms: C21_24  and  C22_25
REMARK   15  A    between atoms: C24_27  and  C32_37
REMARK   16  A    between atoms: C24_27  and  C33_38
REMARK   17  A    between atoms: C26_29  and  C28_32
REMARK   18  A    between atoms: C28_32  and  C29_34
REMARK   19  A    between atoms: C29_34  and  C30_35
REMARK   20  A    between atoms: C29_34  and  C31_36
REMARK                            x       y       z     vdW  Elec       q    Type
REMARK                         _______ _______ _______ _____ _____    ______ ____
ROOT
ATOM      4  C   UNL     1      46.716  19.928  21.296  0.00  0.00    -0.213 A 
ATOM      5  C   UNL     1      48.021  19.471  21.019  0.00  0.00    +0.197 A 
ATOM      8  C   UNL     1      48.325  18.127  21.130  0.00  0.00    -0.170 A 
ATOM     25  C   UNL     1      47.350  17.214  21.510  0.00  0.00    +0.194 A 
ATOM     28  C   UNL     1      46.050  17.650  21.776  0.00  0.00    -0.163 A 
ATOM     29  C   UNL     1      44.986  16.705  22.174  0.00  0.00    +0.051 C 
ATOM     30  C   UNL     1      43.726  17.130  22.165  0.00  0.00    -0.043 C 
ATOM     31  C   UNL     1      43.406  18.530  21.711  0.00  0.00    +0.151 C 
ATOM     38  C   UNL     1      42.140  19.013  22.423  0.00  0.00    +0.087 C 
ATOM     39  O   UNL     1      44.482  19.417  22.013  0.00  0.00    -0.292 OA
ATOM     40  C   UNL     1      45.733  19.011  21.692  0.00  0.00    +0.204 A 
ENDROOT
BRANCH   4   3
ATOM      3  C   UNL     1      46.393  21.348  21.175  0.00  0.00    +0.429 C 
ATOM     41  O   UNL     1      46.917  22.155  21.915  0.00  0.00    -0.427 OA
BRANCH   3   2
ATOM      1  C   UNL     1      45.202  23.321  20.260  0.00  0.00    +0.047 C 
ATOM      2  C   UNL     1      45.408  21.811  20.131  0.00  0.00    -0.044 C 
ATOM     42  C   UNL     1      45.951  21.486  18.739  0.00  0.00    +0.057 C 
ENDBRANCH   3   2
ENDBRANCH   4   3
BRANCH   5   6
ATOM      6  O   UNL     1      48.980  20.352  20.642  0.00  0.00    -0.481 OA
ATOM      7  H   UNL     1      49.336  20.882  21.369  0.00  0.00    +0.398 HD
ENDBRANCH   5   6
BRANCH  25  26
ATOM     26  O   UNL     1      47.659  15.898  21.621  0.00  0.00    -0.485 OA
ATOM     27  H   UNL     1      47.810  15.605  22.530  0.00  0.00    +0.393 HD
ENDBRANCH  25  26
BRANCH   8   9
ATOM      9  C   UNL     1      49.725  17.649  20.839  0.00  0.00    +0.152 C 
BRANCH   9  10
ATOM     10  C   UNL     1      49.712  16.760  19.594  0.00  0.00    -0.051 C 
ATOM     11  C   UNL     1      50.862  15.771  19.649  0.00  0.00    +0.378 C 
ATOM     12  O   UNL     1      50.664  14.582  19.714  0.00  0.00    -0.414 OA
ATOM     13  C   UNL     1      52.266  16.331  19.618  0.00  0.00    -0.098 C 
ATOM     14  C   UNL     1      52.603  16.929  20.985  0.00  0.00    +0.095 C 
ATOM     15  C   UNL     1      53.254  15.206  19.301  0.00  0.00    +0.082 C 
ATOM     16  C   UNL     1      52.372  17.399  18.567  0.00  0.00    +0.170 C 
ATOM     17  C   UNL     1      51.303  17.986  18.000  0.00  0.00    -0.273 C 
ATOM     23  C   UNL     1      49.926  17.601  18.352  0.00  0.00    +0.400 C 
ATOM     24  O   UNL     1      48.988  17.948  17.666  0.00  0.00    -0.402 OA
BRANCH  17  18
ATOM     18  C   UNL     1      51.516  19.044  17.001  0.00  0.00    +0.394 C 
ATOM     22  O   UNL     1      51.962  18.766  15.909  0.00  0.00    -0.420 OA
BRANCH  18  19
ATOM     19  C   UNL     1      51.178  20.474  17.334  0.00  0.00    -0.040 C 
ATOM     20  C   UNL     1      51.594  21.381  16.175  0.00  0.00    +0.052 C 
ATOM     21  C   UNL     1      51.927  20.893  18.602  0.00  0.00    +0.053 C 
ENDBRANCH  18  19
ENDBRANCH  17  18
ENDBRANCH   9  10
ENDBRANCH   8   9
BRANCH  31  32
ATOM     32  C   UNL     1      43.163  18.526  20.201  0.00  0.00    +0.017 C 
BRANCH  32  33
ATOM     33  C   UNL     1      42.814  19.942  19.737  0.00  0.00    +0.062 C 
BRANCH  33  34
ATOM     34  C   UNL     1      41.379  19.980  19.277  0.00  0.00    -0.054 C 
ATOM     35  C   UNL     1      40.862  21.101  18.836  0.00  0.00    -0.137 C 
ATOM     36  C   UNL     1      39.428  21.139  18.375  0.00  0.00    +0.071 C 
ATOM     37  C   UNL     1      41.703  22.351  18.790  0.00  0.00    +0.072 C 
ENDBRANCH  33  34
ENDBRANCH  32  33
ENDBRANCH  31  32
TORSDOF 11
ENDMDL
MODEL 2
REMARK VINA RESULT:      -6.5      3.722      6.250
REMARK  Name = ZINC95485885
REMARK  20 active torsions:
REMARK  status: ('A' for Active; 'I' for Inactive)
REMARK    1  A    between atoms: C1_1  and  C2_2
REMARK    2  A    between atoms: C2_2  and  C3_3
REMARK    3  A    between atoms: C2_2  and  C4_4
REMARK    4  A    between atoms: C4_4  and  C5_6
REMARK    5  A    between atoms: C6_7  and  O7_40
REMARK    6  A    between atoms: C7_8  and  C21_24
REMARK    7  A    between atoms: C8_9  and  O3_23
REMARK    8  A    between atoms: C11_13  and  C14_16
REMARK    9  A    between atoms: C11_13  and  C15_17
REMARK   10  A    between atoms: C15_17  and  C16_18
REMARK   11  A    between atoms: C16_18  and  C17_19
REMARK   12  A    between atoms: C18_20  and  C19_21
REMARK   13  A    between atoms: C18_20  and  C20_22
REMARK   14  A    between atoms: C21_24  and  C22_25
REMARK   15  A    between atoms: C24_27  and  C32_37
REMARK   16  A    between atoms: C24_27  and  C33_38
REMARK   17  A    between atoms: C26_29  and  C28_32
REMARK   18  A    between atoms: C28_32  and  C29_34
REMARK   19  A    between atoms: C29_34  and  C30_35
REMARK   20  A    between atoms: C29_34  and  C31_36
REMARK                            x       y       z     vdW  Elec       q    Type
REMARK                         _______ _______ _______ _____ _____    ______ ____
ROOT
ATOM      4  C   UNL     1      50.668  17.611  18.428  0.00  0.00    -0.213 A 
ATOM      5  C   UNL     1      50.744  16.290  17.941  0.00  0.00    +0.197 A 
ATOM      8  C   UNL     1      49.831  15.340  18.360  0.00  0.00    -0.170 A 
ATOM     25  C   UNL     1      48.829  15.678  19.260  0.00  0.00    +0.194 A 
ATOM     28  C   UNL     1      48.733  16.985  19.742  0.00  0.00    -0.163 A 
ATOM     29  C   UNL     1      47.674  17.381  20.693  0.00  0.00    +0.051 C 
ATOM     30  C   UNL     1      47.476  18.676  20.918  0.00  0.00    -0.043 C 
ATOM     31  C   UNL     1      48.289  19.703  20.174  0.00  0.00    +0.151 C 
ATOM     38  C   UNL     1      48.425  20.959  21.038  0.00  0.00    +0.087 C 
ATOM     39  O   UNL     1      49.588  19.196  19.873  0.00  0.00    -0.292 OA
ATOM     40  C   UNL     1      49.665  17.951  19.346  0.00  0.00    +0.204 A 
ENDROOT
BRANCH   4   3
ATOM      3  C   UNL     1      51.631  18.617  17.982  0.00  0.00    +0.429 C 
ATOM     41  O   UNL     1      52.748  18.638  18.454  0.00  0.00    -0.427 OA
BRANCH   3   2
ATOM      1  C   UNL     1      51.288  21.031  17.537  0.00  0.00    +0.047 C 
ATOM      2  C   UNL     1      51.235  19.626  16.935  0.00  0.00    -0.044 C 
ATOM     42  C   UNL     1      52.202  19.541  15.753  0.00  0.00    +0.057 C 
ENDBRANCH   3   2
ENDBRANCH   4   3
BRANCH   5   6
ATOM      6  O   UNL     1      51.716  15.950  17.057  0.00  0.00    -0.481 OA
ATOM      7  H   UNL     1      51.943  15.010  17.066  0.00  0.00    +0.398 HD
ENDBRANCH   5   6
BRANCH  25  26
ATOM     26  O   UNL     1      47.940  14.738  19.669  0.00  0.00    -0.485 OA
ATOM     27  H   UNL     1      47.714  14.089  18.989  0.00  0.00    +0.393 HD
ENDBRANCH  25  26
BRANCH   8   9
ATOM      9  C   UNL     1      49.926  13.929  17.839  0.00  0.00    +0.152 C 
BRANCH   9  10
ATOM     10  C   UNL     1      49.398  13.879  16.404  0.00  0.00    -0.051 C 
ATOM     11  C   UNL     1      48.053  13.175  16.369  0.00  0.00    +0.378 C 
ATOM     12  O   UNL     1      47.049  13.758  16.036  0.00  0.00    -0.414 OA
ATOM     13  C   UNL     1      48.018  11.717  16.765  0.00  0.00    -0.098 C 
ATOM     14  C   UNL     1      48.133  11.603  18.287  0.00  0.00    +0.095 C 
ATOM     15  C   UNL     1      46.693  11.100  16.312  0.00  0.00    +0.082 C 
ATOM     16  C   UNL     1      49.158  10.980  16.123  0.00  0.00    +0.170 C 
ATOM     17  C   UNL     1      50.220  11.596  15.573  0.00  0.00    -0.273 C 
ATOM     23  C   UNL     1      50.333  13.064  15.534  0.00  0.00    +0.400 C 
ATOM     24  O   UNL     1      51.154  13.606  14.824  0.00  0.00    -0.402 OA
BRANCH  17  18
ATOM     18  C   UNL     1      51.298  10.781  14.995  0.00  0.00    +0.394 C 
ATOM     22  O   UNL     1      51.289  10.512  13.813  0.00  0.00    -0.420 OA
BRANCH  18  19
ATOM     19  C   UNL     1      52.417  10.279  15.872  0.00  0.00    -0.040 C 
ATOM     20  C   UNL     1      52.559  11.192  17.091  0.00  0.00    +0.052 C 
ATOM     21  C   UNL     1      53.726  10.281  15.079  0.00  0.00    +0.053 C 
ENDBRANCH  18  19
ENDBRANCH  17  18
ENDBRANCH   9  10
ENDBRANCH   8   9
BRANCH  31  32
ATOM     32  C   UNL     1      47.574  20.064  18.871  0.00  0.00    +0.017 C 
BRANCH  32  33
ATOM     33  C   UNL     1      46.505  21.123  19.153  0.00  0.00    +0.062 C 
BRANCH  33  34
ATOM     34  C   UNL     1      45.144  20.559  18.834  0.00  0.00    -0.054 C 
ATOM     35  C   UNL     1      44.233  20.478  19.773  0.00  0.00    -0.137 C 
ATOM     36  C   UNL     1      42.872  19.915  19.454  0.00  0.00    +0.071 C 
ATOM     37  C   UNL     1      44.548  20.947  21.170  0.00  0.00    +0.072 C 
ENDBRANCH  33  34
ENDBRANCH  32  33
ENDBRANCH  31  32
TORSDOF 11
ENDMDL
MODEL 3
REMARK VINA RESULT:      -6.2      2.428      8.452
REMARK  Name = ZINC95485885
REMARK  20 active torsions:
REMARK  status: ('A' for Active; 'I' for Inactive)
REMARK    1  A    between atoms: C1_1  and  C2_2
REMARK    2  A    between atoms: C2_2  and  C3_3
REMARK    3  A    between atoms: C2_2  and  C4_4
REMARK    4  A    between atoms: C4_4  and  C5_6
REMARK    5  A    between atoms: C6_7  and  O7_40
REMARK    6  A    between atoms: C7_8  and  C21_24
REMARK    7  A    between atoms: C8_9  and  O3_23
REMARK    8  A    between atoms: C11_13  and  C14_16
REMARK    9  A    between atoms: C11_13  and  C15_17
REMARK   10  A    between atoms: C15_17  and  C16_18
REMARK   11  A    between atoms: C16_18  and  C17_19
REMARK   12  A    between atoms: C18_20  and  C19_21
REMARK   13  A    between atoms: C18_20  and  C20_22
REMARK   14  A    between atoms: C21_24  and  C22_25
REMARK   15  A    between atoms: C24_27  and  C32_37
REMARK   16  A    between atoms: C24_27  and  C33_38
REMARK   17  A    between atoms: C26_29  and  C28_32
REMARK   18  A    between atoms: C28_32  and  C29_34
REMARK   19  A    between atoms: C29_34  and  C30_35
REMARK   20  A    between atoms: C29_34  and  C31_36
REMARK                            x       y       z     vdW  Elec       q    Type
REMARK                         _______ _______ _______ _____ _____    ______ ____
ROOT
ATOM      4  C   UNL     1      47.377  15.521  18.743  0.00  0.00    -0.213 A 
ATOM      5  C   UNL     1      46.513  16.526  19.222  0.00  0.00    +0.197 A 
ATOM      8  C   UNL     1      47.005  17.550  20.010  0.00  0.00    -0.170 A 
ATOM     25  C   UNL     1      48.355  17.601  20.332  0.00  0.00    +0.194 A 
ATOM     28  C   UNL     1      49.227  16.620  19.854  0.00  0.00    -0.163 A 
ATOM     29  C   UNL     1      50.670  16.649  20.170  0.00  0.00    +0.051 C 
ATOM     30  C   UNL     1      51.483  15.848  19.489  0.00  0.00    -0.043 C 
ATOM     31  C   UNL     1      50.936  14.974  18.392  0.00  0.00    +0.151 C 
ATOM     38  C   UNL     1      51.802  13.718  18.270  0.00  0.00    +0.087 C 
ATOM     39  O   UNL     1      49.591  14.592  18.675  0.00  0.00    -0.292 OA
ATOM     40  C   UNL     1      48.738  15.564  19.077  0.00  0.00    +0.204 A 
ENDROOT
BRANCH   4   3
ATOM      3  C   UNL     1      46.858  14.440  17.906  0.00  0.00    +0.429 C 
ATOM     41  O   UNL     1      46.690  14.619  16.718  0.00  0.00    -0.427 OA
BRANCH   3   2
ATOM      1  C   UNL     1      45.059  13.081  18.939  0.00  0.00    +0.047 C 
ATOM      2  C   UNL     1      46.531  13.103  18.521  0.00  0.00    -0.044 C 
ATOM     42  C   UNL     1      46.788  11.995  17.499  0.00  0.00    +0.057 C 
ENDBRANCH   3   2
ENDBRANCH   4   3
BRANCH   5   6
ATOM      6  O   UNL     1      45.193  16.489  18.910  0.00  0.00    -0.481 OA
ATOM      7  H   UNL     1      45.013  16.532  17.960  0.00  0.00    +0.398 HD
ENDBRANCH   5   6
BRANCH  25  26
ATOM     26  O   UNL     1      48.829  18.608  21.110  0.00  0.00    -0.485 OA
ATOM     27  H   UNL     1      49.585  19.075  20.729  0.00  0.00    +0.393 HD
ENDBRANCH  25  26
BRANCH   8   9
ATOM      9  C   UNL     1      46.071  18.615  20.524  0.00  0.00    +0.152 C 
BRANCH   9  10
ATOM     10  C   UNL     1      45.947  19.730  19.484  0.00  0.00    -0.051 C 
ATOM     11  C   UNL     1      46.268  21.071  20.118  0.00  0.00    +0.378 C 
ATOM     12  O   UNL     1      47.220  21.722  19.760  0.00  0.00    -0.414 OA
ATOM     13  C   UNL     1      45.349  21.563  21.213  0.00  0.00    -0.098 C 
ATOM     14  C   UNL     1      45.638  20.790  22.501  0.00  0.00    +0.095 C 
ATOM     15  C   UNL     1      45.598  23.054  21.452  0.00  0.00    +0.082 C 
ATOM     16  C   UNL     1      43.916  21.354  20.817  0.00  0.00    +0.170 C 
ATOM     17  C   UNL     1      43.538  20.547  19.809  0.00  0.00    -0.273 C 
ATOM     23  C   UNL     1      44.519  19.819  18.986  0.00  0.00    +0.400 C 
ATOM     24  O   UNL     1      44.191  19.305  17.938  0.00  0.00    -0.402 OA
BRANCH  17  18
ATOM     18  C   UNL     1      42.105  20.388  19.521  0.00  0.00    +0.394 C 
ATOM     22  O   UNL     1      41.470  19.511  20.067  0.00  0.00    -0.420 OA
BRANCH  18  19
ATOM     19  C   UNL     1      41.424  21.315  18.547  0.00  0.00    -0.040 C 
ATOM     20  C   UNL     1      41.931  22.742  18.760  0.00  0.00    +0.052 C 
ATOM     21  C   UNL     1      39.911  21.272  18.775  0.00  0.00    +0.053 C 
ENDBRANCH  18  19
ENDBRANCH  17  18
ENDBRANCH   9  10
ENDBRANCH   8   9
BRANCH  31  32
ATOM     32  C   UNL     1      50.975  15.742  17.070  0.00  0.00    +0.017 C 
BRANCH  32  33
ATOM     33  C   UNL     1      52.066  16.813  17.135  0.00  0.00    +0.062 C 
BRANCH  33  34
ATOM     34  C   UNL     1      51.669  17.987  16.276  0.00  0.00    -0.054 C 
ATOM     35  C   UNL     1      51.934  19.208  16.672  0.00  0.00    -0.137 C 
ATOM     36  C   UNL     1      51.537  20.381  15.813  0.00  0.00    +0.071 C 
ATOM     37  C   UNL     1      52.636  19.437  17.986  0.00  0.00    +0.072 C 
ENDBRANCH  33  34
ENDBRANCH  32  33
ENDBRANCH  31  32
TORSDOF 11
ENDMDL
MODEL 4
REMARK VINA RESULT:      -6.1      1.627      2.073
REMARK  Name = ZINC95485885
REMARK  20 active torsions:
REMARK  status: ('A' for Active; 'I' for Inactive)
REMARK    1  A    between atoms: C1_1  and  C2_2
REMARK    2  A    between atoms: C2_2  and  C3_3
REMARK    3  A    between atoms: C2_2  and  C4_4
REMARK    4  A    between atoms: C4_4  and  C5_6
REMARK    5  A    between atoms: C6_7  and  O7_40
REMARK    6  A    between atoms: C7_8  and  C21_24
REMARK    7  A    between atoms: C8_9  and  O3_23
REMARK    8  A    between atoms: C11_13  and  C14_16
REMARK    9  A    between atoms: C11_13  and  C15_17
REMARK   10  A    between atoms: C15_17  and  C16_18
REMARK   11  A    between atoms: C16_18  and  C17_19
REMARK   12  A    between atoms: C18_20  and  C19_21
REMARK   13  A    between atoms: C18_20  and  C20_22
REMARK   14  A    between atoms: C21_24  and  C22_25
REMARK   15  A    between atoms: C24_27  and  C32_37
REMARK   16  A    between atoms: C24_27  and  C33_38
REMARK   17  A    between atoms: C26_29  and  C28_32
REMARK   18  A    between atoms: C28_32  and  C29_34
REMARK   19  A    between atoms: C29_34  and  C30_35
REMARK   20  A    between atoms: C29_34  and  C31_36
REMARK                            x       y       z     vdW  Elec       q    Type
REMARK                         _______ _______ _______ _____ _____    ______ ____
ROOT
ATOM      4  C   UNL     1      46.932  18.656  20.602  0.00  0.00    -0.213 A 
ATOM      5  C   UNL     1      47.996  17.853  20.144  0.00  0.00    +0.197 A 
ATOM      8  C   UNL     1      47.939  16.478  20.281  0.00  0.00    -0.170 A 
ATOM     25  C   UNL     1      46.833  15.875  20.865  0.00  0.00    +0.194 A 
ATOM     28  C   UNL     1      45.765  16.657  21.313  0.00  0.00    -0.163 A 
ATOM     29  C   UNL     1      44.569  16.048  21.930  0.00  0.00    +0.051 C 
ATOM     30  C   UNL     1      43.490  16.805  22.102  0.00  0.00    -0.043 C 
ATOM     31  C   UNL     1      43.488  18.234  21.627  0.00  0.00    +0.151 C 
ATOM     38  C   UNL     1      42.542  19.056  22.505  0.00  0.00    +0.087 C 
ATOM     39  O   UNL     1      44.800  18.791  21.700  0.00  0.00    -0.292 OA
ATOM     40  C   UNL     1      45.820  18.051  21.204  0.00  0.00    +0.204 A 
ENDROOT
BRANCH   4   3
ATOM      3  C   UNL     1      46.990  20.109  20.455  0.00  0.00    +0.429 C 
ATOM     41  O   UNL     1      46.730  20.622  19.387  0.00  0.00    -0.427 OA
BRANCH   3   2
ATOM      1  C   UNL     1      48.873  21.266  21.580  0.00  0.00    +0.047 C 
ATOM      2  C   UNL     1      47.373  20.971  21.632  0.00  0.00    -0.044 C 
ATOM     42  C   UNL     1      46.592  22.285  21.578  0.00  0.00    +0.057 C 
ENDBRANCH   3   2
ENDBRANCH   4   3
BRANCH   5   6
ATOM      6  O   UNL     1      49.079  18.430  19.567  0.00  0.00    -0.481 OA
ATOM      7  H   UNL     1      48.862  19.088  18.892  0.00  0.00    +0.398 HD
ENDBRANCH   5   6
BRANCH  25  26
ATOM     26  O   UNL     1      46.787  14.526  20.998  0.00  0.00    -0.485 OA
ATOM     27  H   UNL     1      47.147  14.044  20.241  0.00  0.00    +0.393 HD
ENDBRANCH  25  26
BRANCH   8   9
ATOM      9  C   UNL     1      49.085  15.629  19.795  0.00  0.00    +0.152 C 
BRANCH   9  10
ATOM     10  C   UNL     1      48.831  15.210  18.344  0.00  0.00    -0.051 C 
ATOM     11  C   UNL     1      49.491  13.872  18.066  0.00  0.00    +0.378 C 
ATOM     12  O   UNL     1      48.837  12.897  17.787  0.00  0.00    -0.414 OA
ATOM     13  C   UNL     1      50.998  13.807  18.150  0.00  0.00    -0.098 C 
ATOM     14  C   UNL     1      51.425  13.807  19.619  0.00  0.00    +0.095 C 
ATOM     15  C   UNL     1      51.489  12.521  17.482  0.00  0.00    +0.082 C 
ATOM     16  C   UNL     1      51.605  14.992  17.455  0.00  0.00    +0.170 C 
ATOM     17  C   UNL     1      50.906  16.093  17.124  0.00  0.00    -0.273 C 
ATOM     23  C   UNL     1      49.464  16.209  17.397  0.00  0.00    +0.400 C 
ATOM     24  O   UNL     1      48.800  17.081  16.877  0.00  0.00    -0.402 OA
BRANCH  17  18
ATOM     18  C   UNL     1      51.602  17.212  16.472  0.00  0.00    +0.394 C 
ATOM     22  O   UNL     1      52.197  17.032  15.431  0.00  0.00    -0.420 OA
BRANCH  18  19
ATOM     19  C   UNL     1      51.575  18.583  17.097  0.00  0.00    -0.040 C 
ATOM     20  C   UNL     1      52.032  19.621  16.071  0.00  0.00    +0.052 C 
ATOM     21  C   UNL     1      52.517  18.611  18.303  0.00  0.00    +0.053 C 
ENDBRANCH  18  19
ENDBRANCH  17  18
ENDBRANCH   9  10
ENDBRANCH   8   9
BRANCH  31  32
ATOM     32  C   UNL     1      42.999  18.283  20.179  0.00  0.00    +0.017 C 
BRANCH  32  33
ATOM     33  C   UNL     1      42.837  19.741  19.744  0.00  0.00    +0.062 C 
BRANCH  33  34
ATOM     34  C   UNL     1      41.443  19.954  19.209  0.00  0.00    -0.054 C 
ATOM     35  C   UNL     1      41.047  21.158  18.875  0.00  0.00    -0.137 C 
ATOM     36  C   UNL     1      39.654  21.370  18.340  0.00  0.00    +0.071 C 
ATOM     37  C   UNL     1      41.984  22.328  19.026  0.00  0.00    +0.072 C 
ENDBRANCH  33  34
ENDBRANCH  32  33
ENDBRANCH  31  32
TORSDOF 11
ENDMDL
MODEL 5
REMARK VINA RESULT:      -5.9      3.347      4.778
REMARK  Name = ZINC95485885
REMARK  20 active torsions:
REMARK  status: ('A' for Active; 'I' for Inactive)
REMARK    1  A    between atoms: C1_1  and  C2_2
REMARK    2  A    between atoms: C2_2  and  C3_3
REMARK    3  A    between atoms: C2_2  and  C4_4
REMARK    4  A    between atoms: C4_4  and  C5_6
REMARK    5  A    between atoms: C6_7  and  O7_40
REMARK    6  A    between atoms: C7_8  and  C21_24
REMARK    7  A    between atoms: C8_9  and  O3_23
REMARK    8  A    between atoms: C11_13  and  C14_16
REMARK    9  A    between atoms: C11_13  and  C15_17
REMARK   10  A    between atoms: C15_17  and  C16_18
REMARK   11  A    between atoms: C16_18  and  C17_19
REMARK   12  A    between atoms: C18_20  and  C19_21
REMARK   13  A    between atoms: C18_20  and  C20_22
REMARK   14  A    between atoms: C21_24  and  C22_25
REMARK   15  A    between atoms: C24_27  and  C32_37
REMARK   16  A    between atoms: C24_27  and  C33_38
REMARK   17  A    between atoms: C26_29  and  C28_32
REMARK   18  A    between atoms: C28_32  and  C29_34
REMARK   19  A    between atoms: C29_34  and  C30_35
REMARK   20  A    between atoms: C29_34  and  C31_36
REMARK                            x       y       z     vdW  Elec       q    Type
REMARK                         _______ _______ _______ _____ _____    ______ ____
ROOT
ATOM      4  C   UNL     1      48.071  17.783  20.389  0.00  0.00    -0.213 A 
ATOM      5  C   UNL     1      48.618  16.653  19.748  0.00  0.00    +0.197 A 
ATOM      8  C   UNL     1      47.838  15.534  19.526  0.00  0.00    -0.170 A 
ATOM     25  C   UNL     1      46.508  15.513  19.925  0.00  0.00    +0.194 A 
ATOM     28  C   UNL     1      45.948  16.630  20.551  0.00  0.00    -0.163 A 
ATOM     29  C   UNL     1      44.534  16.646  20.980  0.00  0.00    +0.051 C 
ATOM     30  C   UNL     1      43.993  17.807  21.332  0.00  0.00    -0.043 C 
ATOM     31  C   UNL     1      44.801  19.075  21.241  0.00  0.00    +0.151 C 
ATOM     38  C   UNL     1      44.301  20.067  22.294  0.00  0.00    +0.087 C 
ATOM     39  O   UNL     1      46.184  18.807  21.466  0.00  0.00    -0.292 OA
ATOM     40  C   UNL     1      46.733  17.761  20.805  0.00  0.00    +0.204 A 
ENDROOT
BRANCH   4   3
ATOM      3  C   UNL     1      48.895  18.969  20.622  0.00  0.00    +0.429 C 
ATOM     41  O   UNL     1      49.784  18.937  21.447  0.00  0.00    -0.427 OA
BRANCH   3   2
ATOM      1  C   UNL     1      48.118  21.318  20.776  0.00  0.00    +0.047 C 
ATOM      2  C   UNL     1      48.639  20.230  19.836  0.00  0.00    -0.044 C 
ATOM     42  C   UNL     1      49.942  20.698  19.185  0.00  0.00    +0.057 C 
ENDBRANCH   3   2
ENDBRANCH   4   3
BRANCH   5   6
ATOM      6  O   UNL     1      49.914  16.663  19.349  0.00  0.00    -0.481 OA
ATOM      7  H   UNL     1      50.502  17.164  19.932  0.00  0.00    +0.398 HD
ENDBRANCH   5   6
BRANCH  25  26
ATOM     26  O   UNL     1      45.751  14.409  19.706  0.00  0.00    -0.485 OA
ATOM     27  H   UNL     1      44.855  14.469  20.066  0.00  0.00    +0.393 HD
ENDBRANCH  25  26
BRANCH   8   9
ATOM      9  C   UNL     1      48.434  14.328  18.847  0.00  0.00    +0.152 C 
BRANCH   9  10
ATOM     10  C   UNL     1      48.556  14.596  17.345  0.00  0.00    -0.051 C 
ATOM     11  C   UNL     1      47.536  13.768  16.585  0.00  0.00    +0.378 C 
ATOM     12  O   UNL     1      46.649  14.292  15.954  0.00  0.00    -0.414 OA
ATOM     13  C   UNL     1      47.673  12.265  16.645  0.00  0.00    -0.098 C 
ATOM     14  C   UNL     1      47.186  11.766  18.007  0.00  0.00    +0.095 C 
ATOM     15  C   UNL     1      46.819  11.633  15.543  0.00  0.00    +0.082 C 
ATOM     16  C   UNL     1      49.109  11.869  16.453  0.00  0.00    +0.170 C 
ATOM     17  C   UNL     1      50.134  12.733  16.559  0.00  0.00    -0.273 C 
ATOM     23  C   UNL     1      49.920  14.161  16.849  0.00  0.00    +0.400 C 
ATOM     24  O   UNL     1      50.812  14.968  16.693  0.00  0.00    -0.402 OA
BRANCH  17  18
ATOM     18  C   UNL     1      51.507  12.238  16.382  0.00  0.00    +0.394 C 
ATOM     22  O   UNL     1      52.281  12.249  17.315  0.00  0.00    -0.420 OA
BRANCH  18  19
ATOM     19  C   UNL     1      51.952  11.715  15.041  0.00  0.00    -0.040 C 
ATOM     20  C   UNL     1      53.214  10.868  15.216  0.00  0.00    +0.052 C 
ATOM     21  C   UNL     1      52.254  12.892  14.110  0.00  0.00    +0.053 C 
ENDBRANCH  18  19
ENDBRANCH  17  18
ENDBRANCH   9  10
ENDBRANCH   8   9
BRANCH  31  32
ATOM     32  C   UNL     1      44.625  19.686  19.850  0.00  0.00    +0.017 C 
BRANCH  32  33
ATOM     33  C   UNL     1      43.476  20.697  19.880  0.00  0.00    +0.062 C 
BRANCH  33  34
ATOM     34  C   UNL     1      42.530  20.416  18.740  0.00  0.00    -0.054 C 
ATOM     35  C   UNL     1      41.341  19.921  18.984  0.00  0.00    -0.137 C 
ATOM     36  C   UNL     1      40.395  19.639  17.845  0.00  0.00    +0.071 C 
ATOM     37  C   UNL     1      40.921  19.633  20.402  0.00  0.00    +0.072 C 
ENDBRANCH  33  34
ENDBRANCH  32  33
ENDBRANCH  31  32
TORSDOF 11
ENDMDL
MODEL 6
REMARK VINA RESULT:      -5.9      3.093      9.001
REMARK  Name = ZINC95485885
REMARK  20 active torsions:
REMARK  status: ('A' for Active; 'I' for Inactive)
REMARK    1  A    between atoms: C1_1  and  C2_2
REMARK    2  A    between atoms: C2_2  and  C3_3
REMARK    3  A    between atoms: C2_2  and  C4_4
REMARK    4  A    between atoms: C4_4  and  C5_6
REMARK    5  A    between atoms: C6_7  and  O7_40
REMARK    6  A    between atoms: C7_8  and  C21_24
REMARK    7  A    between atoms: C8_9  and  O3_23
REMARK    8  A    between atoms: C11_13  and  C14_16
REMARK    9  A    between atoms: C11_13  and  C15_17
REMARK   10  A    between atoms: C15_17  and  C16_18
REMARK   11  A    between atoms: C16_18  and  C17_19
REMARK   12  A    between atoms: C18_20  and  C19_21
REMARK   13  A    between atoms: C18_20  and  C20_22
REMARK   14  A    between atoms: C21_24  and  C22_25
REMARK   15  A    between atoms: C24_27  and  C32_37
REMARK   16  A    between atoms: C24_27  and  C33_38
REMARK   17  A    between atoms: C26_29  and  C28_32
REMARK   18  A    between atoms: C28_32  and  C29_34
REMARK   19  A    between atoms: C29_34  and  C30_35
REMARK   20  A    between atoms: C29_34  and  C31_36
REMARK                            x       y       z     vdW  Elec       q    Type
REMARK                         _______ _______ _______ _____ _____    ______ ____
ROOT
ATOM      4  C   UNL     1      50.007  16.011  18.119  0.00  0.00    -0.213 A 
ATOM      5  C   UNL     1      49.354  16.897  18.999  0.00  0.00    +0.197 A 
ATOM      8  C   UNL     1      47.973  16.962  19.025  0.00  0.00    -0.170 A 
ATOM     25  C   UNL     1      47.217  16.151  18.190  0.00  0.00    +0.194 A 
ATOM     28  C   UNL     1      47.849  15.258  17.320  0.00  0.00    -0.163 A 
ATOM     29  C   UNL     1      47.074  14.375  16.425  0.00  0.00    +0.051 C 
ATOM     30  C   UNL     1      47.709  13.380  15.814  0.00  0.00    -0.043 C 
ATOM     31  C   UNL     1      49.172  13.143  16.078  0.00  0.00    +0.151 C 
ATOM     38  C   UNL     1      49.812  12.508  14.841  0.00  0.00    +0.087 C 
ATOM     39  O   UNL     1      49.836  14.371  16.373  0.00  0.00    -0.292 OA
ATOM     40  C   UNL     1      49.246  15.201  17.266  0.00  0.00    +0.204 A 
ENDROOT
BRANCH   4   3
ATOM      3  C   UNL     1      51.467  15.940  18.094  0.00  0.00    +0.429 C 
ATOM     41  O   UNL     1      52.107  16.808  17.537  0.00  0.00    -0.427 OA
BRANCH   3   2
ATOM      1  C   UNL     1      53.517  15.273  19.319  0.00  0.00    +0.047 C 
ATOM      2  C   UNL     1      52.177  14.790  18.761  0.00  0.00    -0.044 C 
ATOM     42  C   UNL     1      51.314  14.249  19.902  0.00  0.00    +0.057 C 
ENDBRANCH   3   2
ENDBRANCH   4   3
BRANCH   5   6
ATOM      6  O   UNL     1      50.083  17.691  19.824  0.00  0.00    -0.481 OA
ATOM      7  H   UNL     1      50.021  17.448  20.759  0.00  0.00    +0.398 HD
ENDBRANCH   5   6
BRANCH  25  26
ATOM     26  O   UNL     1      45.862  16.224  18.219  0.00  0.00    -0.485 OA
ATOM     27  H   UNL     1      45.485  16.165  19.107  0.00  0.00    +0.393 HD
ENDBRANCH  25  26
BRANCH   8   9
ATOM      9  C   UNL     1      47.285  17.918  19.964  0.00  0.00    +0.152 C 
BRANCH   9  10
ATOM     10  C   UNL     1      46.996  19.232  19.233  0.00  0.00    -0.051 C 
ATOM     11  C   UNL     1      47.585  20.398  20.007  0.00  0.00    +0.378 C 
ATOM     12  O   UNL     1      48.467  21.077  19.540  0.00  0.00    -0.414 OA
ATOM     13  C   UNL     1      47.025  20.677  21.382  0.00  0.00    -0.098 C 
ATOM     14  C   UNL     1      47.565  19.640  22.369  0.00  0.00    +0.095 C 
ATOM     15  C   UNL     1      47.456  22.074  21.832  0.00  0.00    +0.082 C 
ATOM     16  C   UNL     1      45.525  20.603  21.354  0.00  0.00    +0.170 C 
ATOM     17  C   UNL     1      44.832  20.040  20.347  0.00  0.00    -0.273 C 
ATOM     23  C   UNL     1      45.502  19.470  19.166  0.00  0.00    +0.400 C 
ATOM     24  O   UNL     1      44.872  19.200  18.165  0.00  0.00    -0.402 OA
BRANCH  17  18
ATOM     18  C   UNL     1      43.365  19.992  20.430  0.00  0.00    +0.394 C 
ATOM     22  O   UNL     1      42.693  20.674  19.686  0.00  0.00    -0.420 OA
BRANCH  18  19
ATOM     19  C   UNL     1      42.696  19.094  21.438  0.00  0.00    -0.040 C 
ATOM     20  C   UNL     1      43.383  17.728  21.441  0.00  0.00    +0.052 C 
ATOM     21  C   UNL     1      41.221  18.921  21.067  0.00  0.00    +0.053 C 
ENDBRANCH  18  19
ENDBRANCH  17  18
ENDBRANCH   9  10
ENDBRANCH   8   9
BRANCH  31  32
ATOM     32  C   UNL     1      49.321  12.191  17.266  0.00  0.00    +0.017 C 
BRANCH  32  33
ATOM     33  C   UNL     1      50.349  11.109  16.926  0.00  0.00    +0.062 C 
BRANCH  33  34
ATOM     34  C   UNL     1      51.495  11.180  17.903  0.00  0.00    -0.054 C 
ATOM     35  C   UNL     1      52.726  11.032  17.479  0.00  0.00    -0.137 C 
ATOM     36  C   UNL     1      53.872  11.104  18.454  0.00  0.00    +0.071 C 
ATOM     37  C   UNL     1      52.995  10.791  16.016  0.00  0.00    +0.072 C 
ENDBRANCH  33  34
ENDBRANCH  32  33
ENDBRANCH  31  32
TORSDOF 11
ENDMDL
MODEL 7
REMARK VINA RESULT:      -5.8      2.661      7.797
REMARK  Name = ZINC95485885
REMARK  20 active torsions:
REMARK  status: ('A' for Active; 'I' for Inactive)
REMARK    1  A    between atoms: C1_1  and  C2_2
REMARK    2  A    between atoms: C2_2  and  C3_3
REMARK    3  A    between atoms: C2_2  and  C4_4
REMARK    4  A    between atoms: C4_4  and  C5_6
REMARK    5  A    between atoms: C6_7  and  O7_40
REMARK    6  A    between atoms: C7_8  and  C21_24
REMARK    7  A    between atoms: C8_9  and  O3_23
REMARK    8  A    between atoms: C11_13  and  C14_16
REMARK    9  A    between atoms: C11_13  and  C15_17
REMARK   10  A    between atoms: C15_17  and  C16_18
REMARK   11  A    between atoms: C16_18  and  C17_19
REMARK   12  A    between atoms: C18_20  and  C19_21
REMARK   13  A    between atoms: C18_20  and  C20_22
REMARK   14  A    between atoms: C21_24  and  C22_25
REMARK   15  A    between atoms: C24_27  and  C32_37
REMARK   16  A    between atoms: C24_27  and  C33_38
REMARK   17  A    between atoms: C26_29  and  C28_32
REMARK   18  A    between atoms: C28_32  and  C29_34
REMARK   19  A    between atoms: C29_34  and  C30_35
REMARK   20  A    between atoms: C29_34  and  C31_36
REMARK                            x       y       z     vdW  Elec       q    Type
REMARK                         _______ _______ _______ _____ _____    ______ ____
ROOT
ATOM      4  C   UNL     1      46.829  15.070  18.883  0.00  0.00    -0.213 A 
ATOM      5  C   UNL     1      45.988  16.197  18.983  0.00  0.00    +0.197 A 
ATOM      8  C   UNL     1      45.275  16.432  20.144  0.00  0.00    -0.170 A 
ATOM     25  C   UNL     1      45.384  15.565  21.223  0.00  0.00    +0.194 A 
ATOM     28  C   UNL     1      46.223  14.451  21.144  0.00  0.00    -0.163 A 
ATOM     29  C   UNL     1      46.369  13.513  22.276  0.00  0.00    +0.051 C 
ATOM     30  C   UNL     1      47.359  12.628  22.241  0.00  0.00    -0.043 C 
ATOM     31  C   UNL     1      48.329  12.626  21.089  0.00  0.00    +0.151 C 
ATOM     38  C   UNL     1      48.863  11.207  20.882  0.00  0.00    +0.087 C 
ATOM     39  O   UNL     1      47.690  13.068  19.892  0.00  0.00    -0.292 OA
ATOM     40  C   UNL     1      46.931  14.187  19.966  0.00  0.00    +0.204 A 
ENDROOT
BRANCH   4   3
ATOM      3  C   UNL     1      47.586  14.823  17.657  0.00  0.00    +0.429 C 
ATOM     41  O   UNL     1      47.015  14.792  16.587  0.00  0.00    -0.427 OA
BRANCH   3   2
ATOM      1  C   UNL     1      49.465  13.450  16.800  0.00  0.00    +0.047 C 
ATOM      2  C   UNL     1      49.077  14.607  17.722  0.00  0.00    -0.044 C 
ATOM     42  C   UNL     1      49.796  15.881  17.275  0.00  0.00    +0.057 C 
ENDBRANCH   3   2
ENDBRANCH   4   3
BRANCH   5   6
ATOM      6  O   UNL     1      45.878  17.054  17.938  0.00  0.00    -0.481 OA
ATOM      7  H   UNL     1      46.726  17.306  17.545  0.00  0.00    +0.398 HD
ENDBRANCH   5   6
BRANCH  25  26
ATOM     26  O   UNL     1      44.677  15.802  22.357  0.00  0.00    -0.485 OA
ATOM     27  H   UNL     1      44.359  16.712  22.439  0.00  0.00    +0.393 HD
ENDBRANCH  25  26
BRANCH   8   9
ATOM      9  C   UNL     1      44.373  17.636  20.238  0.00  0.00    +0.152 C 
BRANCH   9  10
ATOM     10  C   UNL     1      45.003  18.674  21.169  0.00  0.00    -0.051 C 
ATOM     11  C   UNL     1      44.321  20.018  20.986  0.00  0.00    +0.378 C 
ATOM     12  O   UNL     1      43.700  20.533  21.884  0.00  0.00    -0.414 OA
ATOM     13  C   UNL     1      44.451  20.689  19.638  0.00  0.00    -0.098 C 
ATOM     14  C   UNL     1      43.531  19.990  18.634  0.00  0.00    +0.095 C 
ATOM     15  C   UNL     1      44.041  22.158  19.760  0.00  0.00    +0.082 C 
ATOM     16  C   UNL     1      45.870  20.605  19.154  0.00  0.00    +0.170 C 
ATOM     17  C   UNL     1      46.782  19.769  19.682  0.00  0.00    -0.273 C 
ATOM     23  C   UNL     1      46.460  18.878  20.810  0.00  0.00    +0.400 C 
ATOM     24  O   UNL     1      47.340  18.323  21.434  0.00  0.00    -0.402 OA
BRANCH  17  18
ATOM     18  C   UNL     1      48.139  19.743  19.116  0.00  0.00    +0.394 C 
ATOM     22  O   UNL     1      48.497  18.802  18.440  0.00  0.00    -0.420 OA
BRANCH  18  19
ATOM     19  C   UNL     1      49.086  20.887  19.374  0.00  0.00    -0.040 C 
ATOM     20  C   UNL     1      50.248  20.823  18.381  0.00  0.00    +0.052 C 
ATOM     21  C   UNL     1      49.629  20.786  20.801  0.00  0.00    +0.053 C 
ENDBRANCH  18  19
ENDBRANCH  17  18
ENDBRANCH   9  10
ENDBRANCH   8   9
BRANCH  31  32
ATOM     32  C   UNL     1      49.496  13.561  21.413  0.00  0.00    +0.017 C 
BRANCH  32  33
ATOM     33  C   UNL     1      50.741  13.106  20.648  0.00  0.00    +0.062 C 
BRANCH  33  34
ATOM     34  C   UNL     1      51.647  14.288  20.414  0.00  0.00    -0.054 C 
ATOM     35  C   UNL     1      52.545  14.246  19.460  0.00  0.00    -0.137 C 
ATOM     36  C   UNL     1      53.450  15.428  19.227  0.00  0.00    +0.071 C 
ATOM     37  C   UNL     1      52.671  13.017  18.598  0.00  0.00    +0.072 C 
ENDBRANCH  33  34
ENDBRANCH  32  33
ENDBRANCH  31  32
TORSDOF 11
ENDMDL
MODEL 8
REMARK VINA RESULT:      -5.8      3.469      6.607
REMARK  Name = ZINC95485885
REMARK  20 active torsions:
REMARK  status: ('A' for Active; 'I' for Inactive)
REMARK    1  A    between atoms: C1_1  and  C2_2
REMARK    2  A    between atoms: C2_2  and  C3_3
REMARK    3  A    between atoms: C2_2  and  C4_4
REMARK    4  A    between atoms: C4_4  and  C5_6
REMARK    5  A    between atoms: C6_7  and  O7_40
REMARK    6  A    between atoms: C7_8  and  C21_24
REMARK    7  A    between atoms: C8_9  and  O3_23
REMARK    8  A    between atoms: C11_13  and  C14_16
REMARK    9  A    between atoms: C11_13  and  C15_17
REMARK   10  A    between atoms: C15_17  and  C16_18
REMARK   11  A    between atoms: C16_18  and  C17_19
REMARK   12  A    between atoms: C18_20  and  C19_21
REMARK   13  A    between atoms: C18_20  and  C20_22
REMARK   14  A    between atoms: C21_24  and  C22_25
REMARK   15  A    between atoms: C24_27  and  C32_37
REMARK   16  A    between atoms: C24_27  and  C33_38
REMARK   17  A    between atoms: C26_29  and  C28_32
REMARK   18  A    between atoms: C28_32  and  C29_34
REMARK   19  A    between atoms: C29_34  and  C30_35
REMARK   20  A    between atoms: C29_34  and  C31_36
REMARK                            x       y       z     vdW  Elec       q    Type
REMARK                         _______ _______ _______ _____ _____    ______ ____
ROOT
ATOM      4  C   UNL     1      46.640  15.900  20.182  0.00  0.00    -0.213 A 
ATOM      5  C   UNL     1      46.672  14.841  19.253  0.00  0.00    +0.197 A 
ATOM      8  C   UNL     1      46.558  15.099  17.900  0.00  0.00    -0.170 A 
ATOM     25  C   UNL     1      46.417  16.403  17.443  0.00  0.00    +0.194 A 
ATOM     28  C   UNL     1      46.396  17.464  18.351  0.00  0.00    -0.163 A 
ATOM     29  C   UNL     1      46.256  18.864  17.899  0.00  0.00    +0.051 C 
ATOM     30  C   UNL     1      46.496  19.838  18.771  0.00  0.00    -0.043 C 
ATOM     31  C   UNL     1      46.946  19.504  20.168  0.00  0.00    +0.151 C 
ATOM     38  C   UNL     1      46.480  20.606  21.124  0.00  0.00    +0.087 C 
ATOM     39  O   UNL     1      46.401  18.255  20.589  0.00  0.00    -0.292 OA
ATOM     40  C   UNL     1      46.485  17.215  19.725  0.00  0.00    +0.204 A 
ENDROOT
BRANCH   4   3
ATOM      3  C   UNL     1      46.764  15.627  21.614  0.00  0.00    +0.429 C 
ATOM     41  O   UNL     1      47.860  15.591  22.132  0.00  0.00    -0.427 OA
BRANCH   3   2
ATOM      1  C   UNL     1      44.343  16.124  21.813  0.00  0.00    +0.047 C 
ATOM      2  C   UNL     1      45.529  15.393  22.445  0.00  0.00    -0.044 C 
ATOM     42  C   UNL     1      45.231  13.894  22.505  0.00  0.00    +0.057 C 
ENDBRANCH   3   2
ENDBRANCH   4   3
BRANCH   5   6
ATOM      6  O   UNL     1      46.816  13.564  19.687  0.00  0.00    -0.481 OA
ATOM      7  H   UNL     1      47.696  13.362  20.033  0.00  0.00    +0.398 HD
ENDBRANCH   5   6
BRANCH  25  26
ATOM     26  O   UNL     1      46.302  16.646  16.113  0.00  0.00    -0.485 OA
ATOM     27  H   UNL     1      46.985  17.233  15.761  0.00  0.00    +0.393 HD
ENDBRANCH  25  26
BRANCH   8   9
ATOM      9  C   UNL     1      46.586  13.959  16.914  0.00  0.00    +0.152 C 
BRANCH   9  10
ATOM     10  C   UNL     1      47.862  14.042  16.074  0.00  0.00    -0.051 C 
ATOM     11  C   UNL     1      48.053  12.756  15.291  0.00  0.00    +0.378 C 
ATOM     12  O   UNL     1      48.026  12.747  14.084  0.00  0.00    -0.414 OA
ATOM     13  C   UNL     1      48.281  11.486  16.078  0.00  0.00    -0.098 C 
ATOM     14  C   UNL     1      46.954  11.021  16.683  0.00  0.00    +0.095 C 
ATOM     15  C   UNL     1      48.819  10.400  15.145  0.00  0.00    +0.082 C 
ATOM     16  C   UNL     1      49.271  11.733  17.180  0.00  0.00    +0.170 C 
ATOM     17  C   UNL     1      49.620  12.963  17.598  0.00  0.00    -0.273 C 
ATOM     23  C   UNL     1      49.071  14.181  16.976  0.00  0.00    +0.400 C 
ATOM     24  O   UNL     1      49.574  15.265  17.182  0.00  0.00    -0.402 OA
BRANCH  17  18
ATOM     18  C   UNL     1      50.577  13.097  18.706  0.00  0.00    +0.394 C 
ATOM     22  O   UNL     1      51.742  12.806  18.539  0.00  0.00    -0.420 OA
BRANCH  18  19
ATOM     19  C   UNL     1      50.110  13.595  20.049  0.00  0.00    -0.040 C 
ATOM     20  C   UNL     1      50.964  14.790  20.476  0.00  0.00    +0.052 C 
ATOM     21  C   UNL     1      50.247  12.476  21.084  0.00  0.00    +0.053 C 
ENDBRANCH  18  19
ENDBRANCH  17  18
ENDBRANCH   9  10
ENDBRANCH   8   9
BRANCH  31  32
ATOM     32  C   UNL     1      48.473  19.425  20.199  0.00  0.00    +0.017 C 
BRANCH  32  33
ATOM     33  C   UNL     1      49.063  20.776  19.788  0.00  0.00    +0.062 C 
BRANCH  33  34
ATOM     34  C   UNL     1      49.735  20.643  18.445  0.00  0.00    -0.054 C 
ATOM     35  C   UNL     1      51.010  20.921  18.321  0.00  0.00    -0.137 C 
ATOM     36  C   UNL     1      51.682  20.788  16.979  0.00  0.00    +0.071 C 
ATOM     37  C   UNL     1      51.802  21.374  19.520  0.00  0.00    +0.072 C 
ENDBRANCH  33  34
ENDBRANCH  32  33
ENDBRANCH  31  32
TORSDOF 11
ENDMDL
MODEL 9
REMARK VINA RESULT:      -5.7      1.847      8.885
REMARK  Name = ZINC95485885
REMARK  20 active torsions:
REMARK  status: ('A' for Active; 'I' for Inactive)
REMARK    1  A    between atoms: C1_1  and  C2_2
REMARK    2  A    between atoms: C2_2  and  C3_3
REMARK    3  A    between atoms: C2_2  and  C4_4
REMARK    4  A    between atoms: C4_4  and  C5_6
REMARK    5  A    between atoms: C6_7  and  O7_40
REMARK    6  A    between atoms: C7_8  and  C21_24
REMARK    7  A    between atoms: C8_9  and  O3_23
REMARK    8  A    between atoms: C11_13  and  C14_16
REMARK    9  A    between atoms: C11_13  and  C15_17
REMARK   10  A    between atoms: C15_17  and  C16_18
REMARK   11  A    between atoms: C16_18  and  C17_19
REMARK   12  A    between atoms: C18_20  and  C19_21
REMARK   13  A    between atoms: C18_20  and  C20_22
REMARK   14  A    between atoms: C21_24  and  C22_25
REMARK   15  A    between atoms: C24_27  and  C32_37
REMARK   16  A    between atoms: C24_27  and  C33_38
REMARK   17  A    between atoms: C26_29  and  C28_32
REMARK   18  A    between atoms: C28_32  and  C29_34
REMARK   19  A    between atoms: C29_34  and  C30_35
REMARK   20  A    between atoms: C29_34  and  C31_36
REMARK                            x       y       z     vdW  Elec       q    Type
REMARK                         _______ _______ _______ _____ _____    ______ ____
ROOT
ATOM      4  C   UNL     1      50.131  18.271  18.261  0.00  0.00    -0.213 A 
ATOM      5  C   UNL     1      49.197  19.065  18.957  0.00  0.00    +0.197 A 
ATOM      8  C   UNL     1      48.069  18.489  19.510  0.00  0.00    -0.170 A 
ATOM     25  C   UNL     1      47.846  17.124  19.389  0.00  0.00    +0.194 A 
ATOM     28  C   UNL     1      48.768  16.322  18.713  0.00  0.00    -0.163 A 
ATOM     29  C   UNL     1      48.568  14.864  18.575  0.00  0.00    +0.051 C 
ATOM     30  C   UNL     1      49.586  14.122  18.152  0.00  0.00    -0.043 C 
ATOM     31  C   UNL     1      50.920  14.762  17.873  0.00  0.00    +0.151 C 
ATOM     38  C   UNL     1      51.648  13.959  16.792  0.00  0.00    +0.087 C 
ATOM     39  O   UNL     1      50.751  16.106  17.426  0.00  0.00    -0.292 OA
ATOM     40  C   UNL     1      49.903  16.895  18.127  0.00  0.00    +0.204 A 
ENDROOT
BRANCH   4   3
ATOM      3  C   UNL     1      51.327  18.879  17.679  0.00  0.00    +0.429 C 
ATOM     41  O   UNL     1      52.329  19.011  18.350  0.00  0.00    -0.427 OA
BRANCH   3   2
ATOM      1  C   UNL     1      51.825  20.782  16.170  0.00  0.00    +0.047 C 
ATOM      2  C   UNL     1      51.314  19.342  16.245  0.00  0.00    -0.044 C 
ATOM     42  C   UNL     1      52.218  18.436  15.408  0.00  0.00    +0.057 C 
ENDBRANCH   3   2
ENDBRANCH   4   3
BRANCH   5   6
ATOM      6  O   UNL     1      49.407  20.400  19.085  0.00  0.00    -0.481 OA
ATOM      7  H   UNL     1      49.738  20.825  18.282  0.00  0.00    +0.398 HD
ENDBRANCH   5   6
BRANCH  25  26
ATOM     26  O   UNL     1      46.733  16.568  19.931  0.00  0.00    -0.485 OA
ATOM     27  H   UNL     1      45.948  17.129  19.877  0.00  0.00    +0.393 HD
ENDBRANCH  25  26
BRANCH   8   9
ATOM      9  C   UNL     1      47.073  19.349  20.245  0.00  0.00    +0.152 C 
BRANCH   9  10
ATOM     10  C   UNL     1      45.952  19.764  19.289  0.00  0.00    -0.051 C 
ATOM     11  C   UNL     1      45.749  21.267  19.346  0.00  0.00    +0.378 C 
ATOM     12  O   UNL     1      45.956  21.964  18.383  0.00  0.00    -0.414 OA
ATOM     13  C   UNL     1      45.277  21.857  20.655  0.00  0.00    -0.098 C 
ATOM     14  C   UNL     1      46.443  21.892  21.645  0.00  0.00    +0.095 C 
ATOM     15  C   UNL     1      44.776  23.283  20.416  0.00  0.00    +0.082 C 
ATOM     16  C   UNL     1      44.164  21.026  21.224  0.00  0.00    +0.170 C 
ATOM     17  C   UNL     1      43.884  19.779  20.805  0.00  0.00    -0.273 C 
ATOM     23  C   UNL     1      44.643  19.135  19.719  0.00  0.00    +0.400 C 
ATOM     24  O   UNL     1      44.229  18.129  19.183  0.00  0.00    -0.402 OA
BRANCH  17  18
ATOM     18  C   UNL     1      42.791  19.037  21.449  0.00  0.00    +0.394 C 
ATOM     22  O   UNL     1      42.983  18.464  22.500  0.00  0.00    -0.420 OA
BRANCH  18  19
ATOM     19  C   UNL     1      41.429  18.988  20.804  0.00  0.00    -0.040 C 
ATOM     20  C   UNL     1      41.374  19.994  19.653  0.00  0.00    +0.052 C 
ATOM     21  C   UNL     1      40.361  19.341  21.842  0.00  0.00    +0.053 C 
ENDBRANCH  18  19
ENDBRANCH  17  18
ENDBRANCH   9  10
ENDBRANCH   8   9
BRANCH  31  32
ATOM     32  C   UNL     1      51.759  14.758  19.152  0.00  0.00    +0.017 C 
BRANCH  32  33
ATOM     33  C   UNL     1      53.017  15.603  18.940  0.00  0.00    +0.062 C 
BRANCH  33  34
ATOM     34  C   UNL     1      53.532  16.079  20.275  0.00  0.00    -0.054 C 
ATOM     35  C   UNL     1      54.800  15.939  20.574  0.00  0.00    -0.137 C 
ATOM     36  C   UNL     1      55.316  16.415  21.908  0.00  0.00    +0.071 C 
ATOM     37  C   UNL     1      55.742  15.301  19.585  0.00  0.00    +0.072 C 
ENDBRANCH  33  34
ENDBRANCH  32  33
ENDBRANCH  31  32
TORSDOF 11
ENDMDL
