MODEL 1
REMARK VINA RESULT:      -6.5      0.000      0.000
REMARK  Name = ZINC03871576
REMARK  4 active torsions:
REMARK  status: ('A' for Active; 'I' for Inactive)
REMARK    1  A    between atoms: C3_3  and  O5_20
REMARK    2  A    between atoms: C6_6  and  C7_7
REMARK    3  A    between atoms: C11_12  and  O4_19
REMARK    4  A    between atoms: C13_14  and  O3_18
REMARK                            x       y       z     vdW  Elec       q    Type
REMARK                         _______ _______ _______ _____ _____    ______ ____
ROOT
ATOM      9  C   UNL     1      43.870  18.626  20.420  0.00  0.00    +0.209 A 
ATOM     10  C   UNL     1      44.711  19.678  20.609  0.00  0.00    -0.148 A 
ATOM     11  C   UNL     1      44.309  20.974  20.205  0.00  0.00    +0.423 A 
ATOM     12  C   UNL     1      42.977  21.110  19.593  0.00  0.00    -0.266 A 
ATOM     13  C   UNL     1      42.497  22.354  19.165  0.00  0.00    +0.219 A 
ATOM     16  C   UNL     1      41.241  22.440  18.594  0.00  0.00    -0.055 A 
ATOM     17  C   UNL     1      40.460  21.298  18.449  0.00  0.00    +0.192 A 
ATOM     20  C   UNL     1      40.929  20.063  18.871  0.00  0.00    -0.030 A 
ATOM     21  C   UNL     1      42.186  19.958  19.445  0.00  0.00    +0.183 A 
ATOM     22  O   UNL     1      45.039  21.941  20.358  0.00  0.00    -0.454 OA
ATOM     23  O   UNL     1      42.659  18.762  19.856  0.00  0.00    -0.218 OA
ENDROOT
BRANCH   9   8
ATOM      1  C   UNL     1      43.958  16.802  22.112  0.00  0.00    +0.080 A 
ATOM      2  C   UNL     1      44.368  15.547  22.505  0.00  0.00    -0.010 A 
ATOM      3  C   UNL     1      45.127  14.761  21.648  0.00  0.00    +0.136 A 
ATOM      6  C   UNL     1      45.475  15.235  20.388  0.00  0.00    -0.006 A 
ATOM      7  C   UNL     1      45.070  16.488  19.987  0.00  0.00    +0.080 A 
ATOM      8  C   UNL     1      44.307  17.283  20.846  0.00  0.00    -0.085 A 
BRANCH   3   4
ATOM      4  O   UNL     1      45.529  13.524  22.040  0.00  0.00    -0.497 OA
ATOM      5  H   UNL     1      44.808  12.953  22.339  0.00  0.00    +0.398 HD
ENDBRANCH   3   4
ENDBRANCH   9   8
BRANCH  13  14
ATOM     14  O   UNL     1      43.261  23.467  19.307  0.00  0.00    -0.472 OA
ATOM     15  H   UNL     1      44.048  23.479  18.747  0.00  0.00    +0.403 HD
ENDBRANCH  13  14
BRANCH  17  18
ATOM     18  O   UNL     1      39.227  21.394  17.888  0.00  0.00    -0.487 OA
ATOM     19  H   UNL     1      38.947  22.302  17.707  0.00  0.00    +0.404 HD
ENDBRANCH  17  18
TORSDOF 4
ENDMDL
MODEL 2
REMARK VINA RESULT:      -6.1      2.798      4.339
REMARK  Name = ZINC03871576
REMARK  4 active torsions:
REMARK  status: ('A' for Active; 'I' for Inactive)
REMARK    1  A    between atoms: C3_3  and  O5_20
REMARK    2  A    between atoms: C6_6  and  C7_7
REMARK    3  A    between atoms: C11_12  and  O4_19
REMARK    4  A    between atoms: C13_14  and  O3_18
REMARK                            x       y       z     vdW  Elec       q    Type
REMARK                         _______ _______ _______ _____ _____    ______ ____
ROOT
ATOM      9  C   UNL     1      45.245  19.404  19.703  0.00  0.00    +0.209 A 
ATOM     10  C   UNL     1      44.817  18.489  20.614  0.00  0.00    -0.148 A 
ATOM     11  C   UNL     1      43.442  18.424  20.944  0.00  0.00    +0.423 A 
ATOM     12  C   UNL     1      42.537  19.368  20.267  0.00  0.00    -0.266 A 
ATOM     13  C   UNL     1      41.162  19.375  20.532  0.00  0.00    +0.219 A 
ATOM     16  C   UNL     1      40.346  20.278  19.877  0.00  0.00    -0.055 A 
ATOM     17  C   UNL     1      40.889  21.172  18.961  0.00  0.00    +0.192 A 
ATOM     20  C   UNL     1      42.249  21.171  18.693  0.00  0.00    -0.030 A 
ATOM     21  C   UNL     1      43.083  20.273  19.341  0.00  0.00    +0.183 A 
ATOM     22  O   UNL     1      43.023  17.616  21.758  0.00  0.00    -0.454 OA
ATOM     23  O   UNL     1      44.411  20.263  19.096  0.00  0.00    -0.218 OA
ENDROOT
BRANCH   9   8
ATOM      1  C   UNL     1      47.357  18.293  18.992  0.00  0.00    +0.080 A 
ATOM      2  C   UNL     1      48.698  18.348  18.684  0.00  0.00    -0.010 A 
ATOM      3  C   UNL     1      49.379  19.556  18.750  0.00  0.00    +0.136 A 
ATOM      6  C   UNL     1      48.712  20.716  19.126  0.00  0.00    -0.006 A 
ATOM      7  C   UNL     1      47.371  20.670  19.436  0.00  0.00    +0.080 A 
ATOM      8  C   UNL     1      46.681  19.456  19.372  0.00  0.00    -0.085 A 
BRANCH   3   4
ATOM      4  O   UNL     1      50.702  19.605  18.445  0.00  0.00    -0.497 OA
ATOM      5  H   UNL     1      51.220  20.174  19.030  0.00  0.00    +0.398 HD
ENDBRANCH   3   4
ENDBRANCH   9   8
BRANCH  13  14
ATOM     14  O   UNL     1      40.634  18.501  21.427  0.00  0.00    -0.472 OA
ATOM     15  H   UNL     1      39.687  18.349  21.317  0.00  0.00    +0.403 HD
ENDBRANCH  13  14
BRANCH  17  18
ATOM     18  O   UNL     1      40.078  22.054  18.322  0.00  0.00    -0.487 OA
ATOM     19  H   UNL     1      40.277  22.161  17.381  0.00  0.00    +0.404 HD
ENDBRANCH  17  18
TORSDOF 4
ENDMDL
MODEL 3
REMARK VINA RESULT:      -6.0      5.566      8.381
REMARK  Name = ZINC03871576
REMARK  4 active torsions:
REMARK  status: ('A' for Active; 'I' for Inactive)
REMARK    1  A    between atoms: C3_3  and  O5_20
REMARK    2  A    between atoms: C6_6  and  C7_7
REMARK    3  A    between atoms: C11_12  and  O4_19
REMARK    4  A    between atoms: C13_14  and  O3_18
REMARK                            x       y       z     vdW  Elec       q    Type
REMARK                         _______ _______ _______ _____ _____    ______ ____
ROOT
ATOM      9  C   UNL     1      48.314  20.501  19.717  0.00  0.00    +0.209 A 
ATOM     10  C   UNL     1      48.499  19.191  20.031  0.00  0.00    -0.148 A 
ATOM     11  C   UNL     1      49.554  18.470  19.422  0.00  0.00    +0.423 A 
ATOM     12  C   UNL     1      50.408  19.196  18.467  0.00  0.00    -0.266 A 
ATOM     13  C   UNL     1      51.475  18.562  17.818  0.00  0.00    +0.219 A 
ATOM     16  C   UNL     1      52.253  19.278  16.928  0.00  0.00    -0.055 A 
ATOM     17  C   UNL     1      51.977  20.618  16.680  0.00  0.00    +0.192 A 
ATOM     20  C   UNL     1      50.922  21.252  17.319  0.00  0.00    -0.030 A 
ATOM     21  C   UNL     1      50.131  20.550  18.215  0.00  0.00    +0.183 A 
ATOM     22  O   UNL     1      49.749  17.292  19.679  0.00  0.00    -0.454 OA
ATOM     23  O   UNL     1      49.097  21.151  18.841  0.00  0.00    -0.218 OA
ENDROOT
BRANCH   9   8
ATOM      1  C   UNL     1      47.391  21.812  21.622  0.00  0.00    +0.080 A 
ATOM      2  C   UNL     1      46.356  22.497  22.218  0.00  0.00    -0.010 A 
ATOM      3  C   UNL     1      45.133  22.616  21.571  0.00  0.00    +0.136 A 
ATOM      6  C   UNL     1      44.947  22.045  20.317  0.00  0.00    -0.006 A 
ATOM      7  C   UNL     1      45.977  21.358  19.713  0.00  0.00    +0.080 A 
ATOM      8  C   UNL     1      47.209  21.235  20.361  0.00  0.00    -0.085 A 
BRANCH   3   4
ATOM      4  O   UNL     1      44.115  23.292  22.164  0.00  0.00    -0.497 OA
ATOM      5  H   UNL     1      44.028  24.208  21.868  0.00  0.00    +0.398 HD
ENDBRANCH   3   4
ENDBRANCH   9   8
BRANCH  13  14
ATOM     14  O   UNL     1      51.743  17.254  18.061  0.00  0.00    -0.472 OA
ATOM     15  H   UNL     1      52.092  17.082  18.946  0.00  0.00    +0.403 HD
ENDBRANCH  13  14
BRANCH  17  18
ATOM     18  O   UNL     1      52.748  21.313  15.804  0.00  0.00    -0.487 OA
ATOM     19  H   UNL     1      53.528  21.721  16.205  0.00  0.00    +0.404 HD
ENDBRANCH  17  18
TORSDOF 4
ENDMDL
MODEL 4
REMARK VINA RESULT:      -5.8      5.299      8.202
REMARK  Name = ZINC03871576
REMARK  4 active torsions:
REMARK  status: ('A' for Active; 'I' for Inactive)
REMARK    1  A    between atoms: C3_3  and  O5_20
REMARK    2  A    between atoms: C6_6  and  C7_7
REMARK    3  A    between atoms: C11_12  and  O4_19
REMARK    4  A    between atoms: C13_14  and  O3_18
REMARK                            x       y       z     vdW  Elec       q    Type
REMARK                         _______ _______ _______ _____ _____    ______ ____
ROOT
ATOM      9  C   UNL     1      47.629  19.749  18.762  0.00  0.00    +0.209 A 
ATOM     10  C   UNL     1      47.799  18.468  18.341  0.00  0.00    -0.148 A 
ATOM     11  C   UNL     1      49.107  17.978  18.109  0.00  0.00    +0.423 A 
ATOM     12  C   UNL     1      50.228  18.903  18.344  0.00  0.00    -0.266 A 
ATOM     13  C   UNL     1      51.555  18.503  18.140  0.00  0.00    +0.219 A 
ATOM     16  C   UNL     1      52.580  19.402  18.371  0.00  0.00    -0.055 A 
ATOM     17  C   UNL     1      52.293  20.692  18.803  0.00  0.00    +0.192 A 
ATOM     20  C   UNL     1      50.982  21.094  19.007  0.00  0.00    -0.030 A 
ATOM     21  C   UNL     1      49.941  20.207  18.780  0.00  0.00    +0.183 A 
ATOM     22  O   UNL     1      49.297  16.833  17.729  0.00  0.00    -0.454 OA
ATOM     23  O   UNL     1      48.659  20.585  18.968  0.00  0.00    -0.218 OA
ENDROOT
BRANCH   9   8
ATOM      1  C   UNL     1      45.161  19.509  18.537  0.00  0.00    +0.080 A 
ATOM      2  C   UNL     1      43.883  19.973  18.760  0.00  0.00    -0.010 A 
ATOM      3  C   UNL     1      43.684  21.167  19.442  0.00  0.00    +0.136 A 
ATOM      6  C   UNL     1      44.772  21.899  19.903  0.00  0.00    -0.006 A 
ATOM      7  C   UNL     1      46.053  21.442  19.684  0.00  0.00    +0.080 A 
ATOM      8  C   UNL     1      46.258  20.242  18.998  0.00  0.00    -0.085 A 
BRANCH   3   4
ATOM      4  O   UNL     1      42.422  21.620  19.659  0.00  0.00    -0.497 OA
ATOM      5  H   UNL     1      41.749  21.179  19.124  0.00  0.00    +0.398 HD
ENDBRANCH   3   4
ENDBRANCH   9   8
BRANCH  13  14
ATOM     14  O   UNL     1      51.833  17.243  17.719  0.00  0.00    -0.472 OA
ATOM     15  H   UNL     1      51.054  16.738  17.450  0.00  0.00    +0.403 HD
ENDBRANCH  13  14
BRANCH  17  18
ATOM     18  O   UNL     1      53.308  21.567  19.027  0.00  0.00    -0.487 OA
ATOM     19  H   UNL     1      53.885  21.318  19.763  0.00  0.00    +0.404 HD
ENDBRANCH  17  18
TORSDOF 4
ENDMDL
MODEL 5
REMARK VINA RESULT:      -5.8      4.300      6.134
REMARK  Name = ZINC03871576
REMARK  4 active torsions:
REMARK  status: ('A' for Active; 'I' for Inactive)
REMARK    1  A    between atoms: C3_3  and  O5_20
REMARK    2  A    between atoms: C6_6  and  C7_7
REMARK    3  A    between atoms: C11_12  and  O4_19
REMARK    4  A    between atoms: C13_14  and  O3_18
REMARK                            x       y       z     vdW  Elec       q    Type
REMARK                         _______ _______ _______ _____ _____    ______ ____
ROOT
ATOM      9  C   UNL     1      47.981  20.228  19.802  0.00  0.00    +0.209 A 
ATOM     10  C   UNL     1      47.682  18.943  20.132  0.00  0.00    -0.148 A 
ATOM     11  C   UNL     1      46.327  18.553  20.260  0.00  0.00    +0.423 A 
ATOM     12  C   UNL     1      45.301  19.581  20.021  0.00  0.00    -0.266 A 
ATOM     13  C   UNL     1      43.936  19.284  20.125  0.00  0.00    +0.219 A 
ATOM     16  C   UNL     1      43.003  20.278  19.894  0.00  0.00    -0.055 A 
ATOM     17  C   UNL     1      43.419  21.562  19.560  0.00  0.00    +0.192 A 
ATOM     20  C   UNL     1      44.768  21.863  19.455  0.00  0.00    -0.030 A 
ATOM     21  C   UNL     1      45.718  20.880  19.684  0.00  0.00    +0.183 A 
ATOM     22  O   UNL     1      46.022  17.408  20.556  0.00  0.00    -0.454 OA
ATOM     23  O   UNL     1      47.036  21.158  19.592  0.00  0.00    -0.218 OA
ENDROOT
BRANCH   9   8
ATOM      1  C   UNL     1      49.943  20.878  18.414  0.00  0.00    +0.080 A 
ATOM      2  C   UNL     1      51.267  21.240  18.300  0.00  0.00    -0.010 A 
ATOM      3  C   UNL     1      52.061  21.345  19.435  0.00  0.00    +0.136 A 
ATOM      6  C   UNL     1      51.524  21.086  20.691  0.00  0.00    -0.006 A 
ATOM      7  C   UNL     1      50.201  20.724  20.814  0.00  0.00    +0.080 A 
ATOM      8  C   UNL     1      49.399  20.616  19.674  0.00  0.00    -0.085 A 
BRANCH   3   4
ATOM      4  O   UNL     1      53.366  21.702  19.317  0.00  0.00    -0.497 OA
ATOM      5  H   UNL     1      53.935  21.004  18.966  0.00  0.00    +0.398 HD
ENDBRANCH   3   4
ENDBRANCH   9   8
BRANCH  13  14
ATOM     14  O   UNL     1      43.532  18.030  20.451  0.00  0.00    -0.472 OA
ATOM     15  H   UNL     1      42.575  17.904  20.420  0.00  0.00    +0.403 HD
ENDBRANCH  13  14
BRANCH  17  18
ATOM     18  O   UNL     1      42.494  22.530  19.334  0.00  0.00    -0.487 OA
ATOM     19  H   UNL     1      42.129  22.524  18.438  0.00  0.00    +0.404 HD
ENDBRANCH  17  18
TORSDOF 4
ENDMDL
MODEL 6
REMARK VINA RESULT:      -5.7      2.283      3.993
REMARK  Name = ZINC03871576
REMARK  4 active torsions:
REMARK  status: ('A' for Active; 'I' for Inactive)
REMARK    1  A    between atoms: C3_3  and  O5_20
REMARK    2  A    between atoms: C6_6  and  C7_7
REMARK    3  A    between atoms: C11_12  and  O4_19
REMARK    4  A    between atoms: C13_14  and  O3_18
REMARK                            x       y       z     vdW  Elec       q    Type
REMARK                         _______ _______ _______ _____ _____    ______ ____
ROOT
ATOM      9  C   UNL     1      45.143  18.825  19.377  0.00  0.00    +0.209 A 
ATOM     10  C   UNL     1      43.939  19.312  18.973  0.00  0.00    -0.148 A 
ATOM     11  C   UNL     1      43.580  20.642  19.298  0.00  0.00    +0.423 A 
ATOM     12  C   UNL     1      44.551  21.436  20.070  0.00  0.00    -0.266 A 
ATOM     13  C   UNL     1      44.279  22.761  20.436  0.00  0.00    +0.219 A 
ATOM     16  C   UNL     1      45.216  23.473  21.161  0.00  0.00    -0.055 A 
ATOM     17  C   UNL     1      46.419  22.877  21.523  0.00  0.00    +0.192 A 
ATOM     20  C   UNL     1      46.695  21.566  21.164  0.00  0.00    -0.030 A 
ATOM     21  C   UNL     1      45.767  20.836  20.437  0.00  0.00    +0.183 A 
ATOM     22  O   UNL     1      42.507  21.112  18.953  0.00  0.00    -0.454 OA
ATOM     23  O   UNL     1      46.017  19.558  20.085  0.00  0.00    -0.218 OA
ENDROOT
BRANCH   9   8
ATOM      1  C   UNL     1      45.165  16.389  19.892  0.00  0.00    +0.080 A 
ATOM      2  C   UNL     1      45.500  15.095  19.562  0.00  0.00    -0.010 A 
ATOM      3  C   UNL     1      46.167  14.829  18.374  0.00  0.00    +0.136 A 
ATOM      6  C   UNL     1      46.500  15.867  17.511  0.00  0.00    -0.006 A 
ATOM      7  C   UNL     1      46.170  17.164  17.833  0.00  0.00    +0.080 A 
ATOM      8  C   UNL     1      45.499  17.437  19.028  0.00  0.00    -0.085 A 
BRANCH   3   4
ATOM      4  O   UNL     1      46.495  13.550  18.052  0.00  0.00    -0.497 OA
ATOM      5  H   UNL     1      45.802  13.075  17.575  0.00  0.00    +0.398 HD
ENDBRANCH   3   4
ENDBRANCH   9   8
BRANCH  13  14
ATOM     14  O   UNL     1      43.104  23.341  20.081  0.00  0.00    -0.472 OA
ATOM     15  H   UNL     1      43.187  24.264  19.812  0.00  0.00    +0.403 HD
ENDBRANCH  13  14
BRANCH  17  18
ATOM     18  O   UNL     1      47.333  23.585  22.235  0.00  0.00    -0.487 OA
ATOM     19  H   UNL     1      48.046  23.047  22.605  0.00  0.00    +0.404 HD
ENDBRANCH  17  18
TORSDOF 4
ENDMDL
MODEL 7
REMARK VINA RESULT:      -5.7      4.986      8.073
REMARK  Name = ZINC03871576
REMARK  4 active torsions:
REMARK  status: ('A' for Active; 'I' for Inactive)
REMARK    1  A    between atoms: C3_3  and  O5_20
REMARK    2  A    between atoms: C6_6  and  C7_7
REMARK    3  A    between atoms: C11_12  and  O4_19
REMARK    4  A    between atoms: C13_14  and  O3_18
REMARK                            x       y       z     vdW  Elec       q    Type
REMARK                         _______ _______ _______ _____ _____    ______ ____
ROOT
ATOM      9  C   UNL     1      48.193  20.265  19.095  0.00  0.00    +0.209 A 
ATOM     10  C   UNL     1      49.404  20.865  18.947  0.00  0.00    -0.148 A 
ATOM     11  C   UNL     1      50.482  20.134  18.394  0.00  0.00    +0.423 A 
ATOM     12  C   UNL     1      50.224  18.738  18.001  0.00  0.00    -0.266 A 
ATOM     13  C   UNL     1      51.232  17.941  17.444  0.00  0.00    +0.219 A 
ATOM     16  C   UNL     1      50.949  16.635  17.089  0.00  0.00    -0.055 A 
ATOM     17  C   UNL     1      49.672  16.120  17.283  0.00  0.00    +0.192 A 
ATOM     20  C   UNL     1      48.669  16.904  17.833  0.00  0.00    -0.030 A 
ATOM     21  C   UNL     1      48.934  18.215  18.195  0.00  0.00    +0.183 A 
ATOM     22  O   UNL     1      51.584  20.640  18.248  0.00  0.00    -0.454 OA
ATOM     23  O   UNL     1      47.971  18.990  18.737  0.00  0.00    -0.218 OA
ENDROOT
BRANCH   9   8
ATOM      1  C   UNL     1      45.883  21.186  18.968  0.00  0.00    +0.080 A 
ATOM      2  C   UNL     1      44.849  21.913  19.514  0.00  0.00    -0.010 A 
ATOM      3  C   UNL     1      44.994  22.504  20.763  0.00  0.00    +0.136 A 
ATOM      6  C   UNL     1      46.183  22.363  21.469  0.00  0.00    -0.006 A 
ATOM      7  C   UNL     1      47.223  21.638  20.931  0.00  0.00    +0.080 A 
ATOM      8  C   UNL     1      47.082  21.043  19.674  0.00  0.00    -0.085 A 
BRANCH   3   4
ATOM      4  O   UNL     1      43.971  23.220  21.296  0.00  0.00    -0.497 OA
ATOM      5  H   UNL     1      43.109  23.028  20.902  0.00  0.00    +0.398 HD
ENDBRANCH   3   4
ENDBRANCH   9   8
BRANCH  13  14
ATOM     14  O   UNL     1      52.478  18.446  17.257  0.00  0.00    -0.472 OA
ATOM     15  H   UNL     1      52.508  19.410  17.210  0.00  0.00    +0.403 HD
ENDBRANCH  13  14
BRANCH  17  18
ATOM     18  O   UNL     1      49.405  14.836  16.930  0.00  0.00    -0.487 OA
ATOM     19  H   UNL     1      48.654  14.743  16.326  0.00  0.00    +0.404 HD
ENDBRANCH  17  18
TORSDOF 4
ENDMDL
MODEL 8
REMARK VINA RESULT:      -5.6      2.766      4.521
REMARK  Name = ZINC03871576
REMARK  4 active torsions:
REMARK  status: ('A' for Active; 'I' for Inactive)
REMARK    1  A    between atoms: C3_3  and  O5_20
REMARK    2  A    between atoms: C6_6  and  C7_7
REMARK    3  A    between atoms: C11_12  and  O4_19
REMARK    4  A    between atoms: C13_14  and  O3_18
REMARK                            x       y       z     vdW  Elec       q    Type
REMARK                         _______ _______ _______ _____ _____    ______ ____
ROOT
ATOM      9  C   UNL     1      45.470  19.984  20.380  0.00  0.00    +0.209 A 
ATOM     10  C   UNL     1      45.019  18.953  21.143  0.00  0.00    -0.148 A 
ATOM     11  C   UNL     1      43.627  18.706  21.228  0.00  0.00    +0.423 A 
ATOM     12  C   UNL     1      42.733  19.596  20.469  0.00  0.00    -0.266 A 
ATOM     13  C   UNL     1      41.343  19.425  20.494  0.00  0.00    +0.219 A 
ATOM     16  C   UNL     1      40.538  20.282  19.768  0.00  0.00    -0.055 A 
ATOM     17  C   UNL     1      41.106  21.306  19.018  0.00  0.00    +0.192 A 
ATOM     20  C   UNL     1      42.481  21.481  18.988  0.00  0.00    -0.030 A 
ATOM     21  C   UNL     1      43.305  20.631  19.709  0.00  0.00    +0.183 A 
ATOM     22  O   UNL     1      43.186  17.790  21.905  0.00  0.00    -0.454 OA
ATOM     23  O   UNL     1      44.645  20.792  19.696  0.00  0.00    -0.218 OA
ENDROOT
BRANCH   9   8
ATOM      1  C   UNL     1      47.618  20.683  21.428  0.00  0.00    +0.080 A 
ATOM      2  C   UNL     1      48.975  20.907  21.352  0.00  0.00    -0.010 A 
ATOM      3  C   UNL     1      49.653  20.681  20.162  0.00  0.00    +0.136 A 
ATOM      6  C   UNL     1      48.967  20.226  19.041  0.00  0.00    -0.006 A 
ATOM      7  C   UNL     1      47.611  19.999  19.108  0.00  0.00    +0.080 A 
ATOM      8  C   UNL     1      46.924  20.226  20.304  0.00  0.00    -0.085 A 
BRANCH   3   4
ATOM      4  O   UNL     1      50.991  20.903  20.092  0.00  0.00    -0.497 OA
ATOM      5  H   UNL     1      51.277  21.322  19.269  0.00  0.00    +0.398 HD
ENDBRANCH   3   4
ENDBRANCH   9   8
BRANCH  13  14
ATOM     14  O   UNL     1      40.791  18.425  21.228  0.00  0.00    -0.472 OA
ATOM     15  H   UNL     1      39.985  18.055  20.844  0.00  0.00    +0.403 HD
ENDBRANCH  13  14
BRANCH  17  18
ATOM     18  O   UNL     1      40.306  22.142  18.308  0.00  0.00    -0.487 OA
ATOM     19  H   UNL     1      40.499  22.160  17.360  0.00  0.00    +0.404 HD
ENDBRANCH  17  18
TORSDOF 4
ENDMDL
MODEL 9
REMARK VINA RESULT:      -5.5      4.032      5.732
REMARK  Name = ZINC03871576
REMARK  4 active torsions:
REMARK  status: ('A' for Active; 'I' for Inactive)
REMARK    1  A    between atoms: C3_3  and  O5_20
REMARK    2  A    between atoms: C6_6  and  C7_7
REMARK    3  A    between atoms: C11_12  and  O4_19
REMARK    4  A    between atoms: C13_14  and  O3_18
REMARK                            x       y       z     vdW  Elec       q    Type
REMARK                         _______ _______ _______ _____ _____    ______ ____
ROOT
ATOM      9  C   UNL     1      47.269  19.702  19.311  0.00  0.00    +0.209 A 
ATOM     10  C   UNL     1      46.487  20.770  19.001  0.00  0.00    -0.148 A 
ATOM     11  C   UNL     1      45.139  20.796  19.432  0.00  0.00    +0.423 A 
ATOM     12  C   UNL     1      44.653  19.642  20.207  0.00  0.00    -0.266 A 
ATOM     13  C   UNL     1      43.333  19.583  20.674  0.00  0.00    +0.219 A 
ATOM     16  C   UNL     1      42.916  18.482  21.397  0.00  0.00    -0.055 A 
ATOM     17  C   UNL     1      43.801  17.442  21.660  0.00  0.00    +0.192 A 
ATOM     20  C   UNL     1      45.108  17.494  21.201  0.00  0.00    -0.030 A 
ATOM     21  C   UNL     1      45.545  18.590  20.473  0.00  0.00    +0.183 A 
ATOM     22  O   UNL     1      44.407  21.738  19.170  0.00  0.00    -0.454 OA
ATOM     23  O   UNL     1      46.813  18.653  20.014  0.00  0.00    -0.218 OA
ENDROOT
BRANCH   9   8
ATOM      1  C   UNL     1      49.421  20.872  18.869  0.00  0.00    +0.080 A 
ATOM      2  C   UNL     1      50.730  20.858  18.441  0.00  0.00    -0.010 A 
ATOM      3  C   UNL     1      51.305  19.676  17.993  0.00  0.00    +0.136 A 
ATOM      6  C   UNL     1      50.563  18.500  17.976  0.00  0.00    -0.006 A 
ATOM      7  C   UNL     1      49.254  18.505  18.403  0.00  0.00    +0.080 A 
ATOM      8  C   UNL     1      48.671  19.693  18.853  0.00  0.00    -0.085 A 
BRANCH   3   4
ATOM      4  O   UNL     1      52.596  19.667  17.572  0.00  0.00    -0.497 OA
ATOM      5  H   UNL     1      52.811  18.936  16.977  0.00  0.00    +0.398 HD
ENDBRANCH   3   4
ENDBRANCH   9   8
BRANCH  13  14
ATOM     14  O   UNL     1      42.471  20.600  20.416  0.00  0.00    -0.472 OA
ATOM     15  H   UNL     1      41.616  20.312  20.072  0.00  0.00    +0.403 HD
ENDBRANCH  13  14
BRANCH  17  18
ATOM     18  O   UNL     1      43.380  16.365  22.372  0.00  0.00    -0.487 OA
ATOM     19  H   UNL     1      43.634  15.515  21.986  0.00  0.00    +0.404 HD
ENDBRANCH  17  18
TORSDOF 4
ENDMDL
