REMARK  10 active torsions:
REMARK  status: ('A' for Active; 'I' for Inactive)
REMARK    1  A    between atoms: O1_3  and  C7_18 
REMARK    2  A    between atoms: O1_3  and  C1_12 
REMARK    3  A    between atoms: O2_4  and  C6_17 
REMARK    4  A    between atoms: O4_6  and  C8_19 
REMARK    5  A    between atoms: O4_6  and  C15_26 
REMARK    6  A    between atoms: O5_7  and  C17_28 
REMARK    7  A    between atoms: N1_8  and  C6_17 
REMARK    8  A    between atoms: N3_10  and  C13_24 
REMARK    9  A    between atoms: N3_10  and  C18_29 
REMARK   10  A    between atoms: C15_26  and  C17_28 
ROOT
ATOM      1  N2  UNK     1      -2.112  -4.005   0.306  1.00  0.00    -0.241 NA
ATOM      2  N4  UNK     1      -3.758  -2.303  -0.140  1.00  0.00    -0.224 NA
ATOM      3  C7  UNK     1       0.956  -1.381  -0.732  1.00  0.00     0.103 A 
ATOM      4  C8  UNK     1       1.242  -2.681  -0.331  1.00  0.00     0.104 A 
ATOM      5  C9  UNK     1      -0.368  -0.955  -0.787  1.00  0.00     0.057 A 
ATOM      6  C10 UNK     1      -1.405  -1.838  -0.437  1.00  0.00     0.042 A 
ATOM      7  C11 UNK     1       0.205  -3.553   0.015  1.00  0.00     0.072 A 
ATOM      8  C12 UNK     1      -1.128  -3.153  -0.030  1.00  0.00     0.075 A 
ATOM      9  C13 UNK     1      -2.749  -1.475  -0.470  1.00  0.00     0.142 A 
ATOM     10  C16 UNK     1      -3.374  -3.534   0.234  1.00  0.00     0.236 A 
ENDROOT
BRANCH   3  11
ATOM     11  O1  UNK     1       1.962  -0.516  -1.076  1.00  0.00    -0.343 OA
BRANCH  11  12
ATOM     12  C1  UNK     1       2.068   0.678  -0.311  1.00  0.00     0.132 C 
ATOM     13  C3  UNK     1       1.902   1.895  -1.224  1.00  0.00     0.052 C 
ATOM     14  C5  UNK     1       2.153   3.193  -0.465  1.00  0.00     0.130 C 
ATOM     15  N1  UNK     1       3.449   3.160   0.214  1.00  0.00    -0.328 N 
ATOM     16  C4  UNK     1       3.662   2.019   1.112  1.00  0.00     0.130 C 
ATOM     17  C2  UNK     1       3.433   0.702   0.378  1.00  0.00     0.052 C 
BRANCH  15  18
ATOM     18  C6  UNK     1       4.369   4.196   0.033  1.00  0.00     0.362 C 
ATOM     19  O3  UNK     1       4.175   5.179  -0.680  1.00  0.00    -0.238 OA
BRANCH  18  20
ATOM     20  O2  UNK     1       5.526   4.004   0.741  1.00  0.00    -0.309 OA
ATOM     21  C14 UNK     1       6.523   5.024   0.610  1.00  0.00     0.215 C 
ENDBRANCH  18  20
ENDBRANCH  15  18
ENDBRANCH  11  12
ENDBRANCH   3  11
BRANCH   4  22
ATOM     22  O4  UNK     1       2.531  -3.119  -0.271  1.00  0.00    -0.346 OA
BRANCH  22  23
ATOM     23  C15 UNK     1       3.007  -3.560   0.999  1.00  0.00     0.201 C 
BRANCH  23  24
ATOM     24  C17 UNK     1       4.503  -3.321   1.077  1.00  0.00     0.193 C 
BRANCH  24  25
ATOM     25  O5  UNK     1       5.146  -4.069   0.052  1.00  0.00    -0.394 OA
ATOM     26  C24 UNK     1       6.552  -3.865   0.064  1.00  0.00     0.201 C 
ENDBRANCH  24  25
ENDBRANCH  23  24
ENDBRANCH  22  23
ENDBRANCH   4  22
BRANCH   9  27
ATOM     27  N3  UNK     1      -3.105  -0.163  -0.871  1.00  0.00    -0.340 N 
ATOM     28  H17 UNK     1      -2.609   0.143  -1.703  1.00  0.00     0.167 HD
BRANCH  27  29
ATOM     29  C18 UNK     1      -4.179   0.673  -0.527  1.00  0.00     0.035 A 
ATOM     30  C19 UNK     1      -4.765   0.573   0.735  1.00  0.00     0.056 A 
ATOM     31  C21 UNK     1      -5.832   1.404   1.076  1.00  0.00     0.074 A 
ATOM     32 Cl1  UNK     1      -6.551   1.277   2.635  1.00  0.00    -0.081 Cl
ATOM     33  C23 UNK     1      -6.313   2.335   0.155  1.00  0.00     0.138 A 
ATOM     34  C22 UNK     1      -5.727   2.435  -1.107  1.00  0.00     0.046 A 
ATOM     35  F1  UNK     1      -7.338   3.141   0.469  1.00  0.00    -0.204 F 
ATOM     36  C20 UNK     1      -4.660   1.604  -1.448  1.00  0.00     0.032 A 
ENDBRANCH  27  29
ENDBRANCH   9  27
TORSDOF 9
