MODEL 1
REMARK VINA RESULT:      -7.7      0.000      0.000
REMARK  Name = ZINC31761332
REMARK  6 active torsions:
REMARK  status: ('A' for Active; 'I' for Inactive)
REMARK    1  A    between atoms: C1_1  and  C2_2
REMARK    2  A    between atoms: C3_3  and  O2_31
REMARK    3  A    between atoms: C11_12  and  C28_30
REMARK    4  A    between atoms: C14_15  and  C27_29
REMARK    5  A    between atoms: C15_16  and  C26_28
REMARK    6  A    between atoms: C18_19  and  C25_27
REMARK                            x       y       z     vdW  Elec       q    Type
REMARK                         _______ _______ _______ _____ _____    ______ ____
ROOT
ATOM      1  C   UNL     1      40.971  19.580  18.374  0.00  0.00    +0.105 C 
ATOM      2  C   UNL     1      41.942  20.628  18.850  0.00  0.00    -0.082 C 
ATOM      3  C   UNL     1      41.623  21.941  18.688  0.00  0.00    +0.030 C 
ATOM      6  C   UNL     1      42.516  22.946  19.129  0.00  0.00    +0.380 C 
ATOM      7  C   UNL     1      43.704  22.584  19.794  0.00  0.00    -0.111 C 
ATOM      8  C   UNL     1      44.020  21.275  19.969  0.00  0.00    +0.025 C 
ATOM      9  C   UNL     1      45.253  20.928  20.769  0.00  0.00    +0.006 C 
ATOM     10  C   UNL     1      44.863  21.158  22.236  0.00  0.00    +0.067 C 
ATOM     11  C   UNL     1      46.370  21.901  20.418  0.00  0.00    +0.046 C 
ATOM     12  C   UNL     1      47.753  21.424  20.839  0.00  0.00    +0.023 C 
ATOM     13  C   UNL     1      48.043  20.011  20.324  0.00  0.00    -0.030 C 
ATOM     14  C   UNL     1      47.801  20.019  18.809  0.00  0.00    +0.024 C 
ATOM     15  C   UNL     1      47.048  19.051  20.983  0.00  0.00    -0.014 C 
ATOM     16  C   UNL     1      47.189  19.061  22.505  0.00  0.00    +0.044 C 
ATOM     17  C   UNL     1      47.322  17.632  20.485  0.00  0.00    +0.026 C 
ATOM     18  C   UNL     1      48.720  17.196  20.906  0.00  0.00    +0.020 C 
ATOM     19  C   UNL     1      49.804  18.148  20.391  0.00  0.00    -0.043 C 
ATOM     20  C   UNL     1      51.086  17.817  21.197  0.00  0.00    +0.014 C 
ATOM     21  C   UNL     1      50.081  17.807  18.930  0.00  0.00    +0.022 C 
ATOM     22  C   UNL     1      51.200  18.672  18.358  0.00  0.00    +0.050 C 
ATOM     23  C   UNL     1      50.876  20.124  18.615  0.00  0.00    -0.109 C 
ATOM     24  C   UNL     1      50.949  21.001  17.637  0.00  0.00    -0.012 C 
ATOM     25  C   UNL     1      50.485  20.553  20.005  0.00  0.00    +0.067 C 
ATOM     26  C   UNL     1      49.470  19.605  20.636  0.00  0.00    +0.013 C 
ATOM     27  C   UNL     1      45.657  19.498  20.581  0.00  0.00    -0.004 C 
ATOM     28  C   UNL     1      44.835  18.598  20.026  0.00  0.00    -0.047 C 
ATOM     29  C   UNL     1      43.574  18.934  19.514  0.00  0.00    +0.145 C 
ATOM     30  O   UNL     1      42.258  24.124  18.936  0.00  0.00    -0.490 OA
ATOM     31  C   UNL     1      43.175  20.269  19.444  0.00  0.00    -0.105 C 
ENDROOT
BRANCH   3   4
ATOM      4  O   UNL     1      40.442  22.284  18.106  0.00  0.00    -0.495 OA
ATOM      5  H   UNL     1      39.663  21.523  17.954  0.00  0.00    +0.437 HD
ENDBRANCH   3   4
TORSDOF 1
ENDMDL
MODEL 2
REMARK VINA RESULT:      -7.1      3.437      7.393
REMARK  Name = ZINC31761332
REMARK  6 active torsions:
REMARK  status: ('A' for Active; 'I' for Inactive)
REMARK    1  A    between atoms: C1_1  and  C2_2
REMARK    2  A    between atoms: C3_3  and  O2_31
REMARK    3  A    between atoms: C11_12  and  C28_30
REMARK    4  A    between atoms: C14_15  and  C27_29
REMARK    5  A    between atoms: C15_16  and  C26_28
REMARK    6  A    between atoms: C18_19  and  C25_27
REMARK                            x       y       z     vdW  Elec       q    Type
REMARK                         _______ _______ _______ _____ _____    ______ ____
ROOT
ATOM      1  C   UNL     1      52.416  19.615  16.417  0.00  0.00    +0.105 C 
ATOM      2  C   UNL     1      51.411  18.672  17.025  0.00  0.00    -0.082 C 
ATOM      3  C   UNL     1      51.382  17.379  16.600  0.00  0.00    +0.030 C 
ATOM      6  C   UNL     1      50.450  16.473  17.157  0.00  0.00    +0.380 C 
ATOM      7  C   UNL     1      49.598  16.893  18.197  0.00  0.00    -0.111 C 
ATOM      8  C   UNL     1      49.634  18.179  18.634  0.00  0.00    +0.025 C 
ATOM      9  C   UNL     1      48.774  18.567  19.812  0.00  0.00    +0.006 C 
ATOM     10  C   UNL     1      49.494  18.000  21.044  0.00  0.00    +0.067 C 
ATOM     11  C   UNL     1      47.421  17.879  19.697  0.00  0.00    +0.046 C 
ATOM     12  C   UNL     1      46.345  18.490  20.583  0.00  0.00    +0.023 C 
ATOM     13  C   UNL     1      46.236  20.004  20.375  0.00  0.00    -0.030 C 
ATOM     14  C   UNL     1      46.042  20.245  18.871  0.00  0.00    +0.024 C 
ATOM     15  C   UNL     1      47.557  20.642  20.816  0.00  0.00    -0.014 C 
ATOM     16  C   UNL     1      47.842  20.365  22.293  0.00  0.00    +0.044 C 
ATOM     17  C   UNL     1      47.469  22.155  20.620  0.00  0.00    +0.026 C 
ATOM     18  C   UNL     1      46.369  22.729  21.505  0.00  0.00    +0.020 C 
ATOM     19  C   UNL     1      45.006  22.087  21.227  0.00  0.00    -0.043 C 
ATOM     20  C   UNL     1      44.099  22.467  22.425  0.00  0.00    +0.014 C 
ATOM     21  C   UNL     1      44.418  22.742  19.981  0.00  0.00    +0.022 C 
ATOM     22  C   UNL     1      43.025  22.200  19.672  0.00  0.00    +0.050 C 
ATOM     23  C   UNL     1      43.086  20.692  19.621  0.00  0.00    -0.109 C 
ATOM     24  C   UNL     1      42.559  20.043  18.606  0.00  0.00    -0.012 C 
ATOM     25  C   UNL     1      43.744  19.948  20.753  0.00  0.00    +0.067 C 
ATOM     26  C   UNL     1      45.073  20.575  21.162  0.00  0.00    +0.013 C 
ATOM     27  C   UNL     1      48.652  20.054  19.950  0.00  0.00    -0.004 C 
ATOM     28  C   UNL     1      49.463  20.893  19.294  0.00  0.00    -0.047 C 
ATOM     29  C   UNL     1      50.430  20.456  18.378  0.00  0.00    +0.145 C 
ATOM     30  O   UNL     1      50.384  15.326  16.740  0.00  0.00    -0.490 OA
ATOM     31  C   UNL     1      50.498  19.112  18.012  0.00  0.00    -0.105 C 
ENDROOT
BRANCH   3   4
ATOM      4  O   UNL     1      52.254  16.962  15.643  0.00  0.00    -0.495 OA
ATOM      5  H   UNL     1      52.339  17.518  14.697  0.00  0.00    +0.437 HD
ENDBRANCH   3   4
TORSDOF 1
ENDMDL
MODEL 3
REMARK VINA RESULT:      -7.0      1.543      2.334
REMARK  Name = ZINC31761332
REMARK  6 active torsions:
REMARK  status: ('A' for Active; 'I' for Inactive)
REMARK    1  A    between atoms: C1_1  and  C2_2
REMARK    2  A    between atoms: C3_3  and  O2_31
REMARK    3  A    between atoms: C11_12  and  C28_30
REMARK    4  A    between atoms: C14_15  and  C27_29
REMARK    5  A    between atoms: C15_16  and  C26_28
REMARK    6  A    between atoms: C18_19  and  C25_27
REMARK                            x       y       z     vdW  Elec       q    Type
REMARK                         _______ _______ _______ _____ _____    ______ ____
ROOT
ATOM      1  C   UNL     1      42.362  19.395  19.506  0.00  0.00    +0.105 C 
ATOM      2  C   UNL     1      43.585  20.267  19.624  0.00  0.00    -0.082 C 
ATOM      3  C   UNL     1      43.443  21.615  19.506  0.00  0.00    +0.030 C 
ATOM      6  C   UNL     1      44.575  22.457  19.616  0.00  0.00    +0.380 C 
ATOM      7  C   UNL     1      45.835  21.901  19.914  0.00  0.00    -0.111 C 
ATOM      8  C   UNL     1      45.977  20.557  20.047  0.00  0.00    +0.025 C 
ATOM      9  C   UNL     1      47.322  20.009  20.459  0.00  0.00    +0.006 C 
ATOM     10  C   UNL     1      47.431  20.293  21.965  0.00  0.00    +0.067 C 
ATOM     11  C   UNL     1      48.422  20.786  19.750  0.00  0.00    +0.046 C 
ATOM     12  C   UNL     1      49.773  20.086  19.763  0.00  0.00    +0.023 C 
ATOM     13  C   UNL     1      49.668  18.647  19.250  0.00  0.00    -0.030 C 
ATOM     14  C   UNL     1      48.987  18.701  17.875  0.00  0.00    +0.024 C 
ATOM     15  C   UNL     1      48.777  17.860  20.216  0.00  0.00    -0.014 C 
ATOM     16  C   UNL     1      49.368  17.839  21.626  0.00  0.00    +0.044 C 
ATOM     17  C   UNL     1      48.660  16.418  19.724  0.00  0.00    +0.026 C 
ATOM     18  C   UNL     1      50.033  15.756  19.730  0.00  0.00    +0.020 C 
ATOM     19  C   UNL     1      51.050  16.519  18.875  0.00  0.00    -0.043 C 
ATOM     20  C   UNL     1      52.444  15.977  19.279  0.00  0.00    +0.014 C 
ATOM     21  C   UNL     1      50.817  16.144  17.414  0.00  0.00    +0.022 C 
ATOM     22  C   UNL     1      51.836  16.815  16.498  0.00  0.00    +0.050 C 
ATOM     23  C   UNL     1      51.839  18.300  16.773  0.00  0.00    -0.109 C 
ATOM     24  C   UNL     1      51.753  19.157  15.780  0.00  0.00    -0.012 C 
ATOM     25  C   UNL     1      51.955  18.780  18.196  0.00  0.00    +0.067 C 
ATOM     26  C   UNL     1      51.039  18.009  19.143  0.00  0.00    +0.013 C 
ATOM     27  C   UNL     1      47.419  18.533  20.225  0.00  0.00    -0.004 C 
ATOM     28  C   UNL     1      46.337  17.783  19.980  0.00  0.00    -0.047 C 
ATOM     29  C   UNL     1      45.051  18.324  19.850  0.00  0.00    +0.145 C 
ATOM     30  O   UNL     1      44.462  23.663  19.456  0.00  0.00    -0.490 OA
ATOM     31  C   UNL     1      44.865  19.707  19.842  0.00  0.00    -0.105 C 
ENDROOT
BRANCH   3   4
ATOM      4  O   UNL     1      42.213  22.151  19.285  0.00  0.00    -0.495 OA
ATOM      5  H   UNL     1      41.606  21.802  18.436  0.00  0.00    +0.437 HD
ENDBRANCH   3   4
TORSDOF 1
ENDMDL
MODEL 4
REMARK VINA RESULT:      -6.8      4.726      7.500
REMARK  Name = ZINC31761332
REMARK  6 active torsions:
REMARK  status: ('A' for Active; 'I' for Inactive)
REMARK    1  A    between atoms: C1_1  and  C2_2
REMARK    2  A    between atoms: C3_3  and  O2_31
REMARK    3  A    between atoms: C11_12  and  C28_30
REMARK    4  A    between atoms: C14_15  and  C27_29
REMARK    5  A    between atoms: C15_16  and  C26_28
REMARK    6  A    between atoms: C18_19  and  C25_27
REMARK                            x       y       z     vdW  Elec       q    Type
REMARK                         _______ _______ _______ _____ _____    ______ ____
ROOT
ATOM      1  C   UNL     1      49.183  12.885  14.800  0.00  0.00    +0.105 C 
ATOM      2  C   UNL     1      48.064  12.929  15.807  0.00  0.00    -0.082 C 
ATOM      3  C   UNL     1      47.080  11.991  15.736  0.00  0.00    +0.030 C 
ATOM      6  C   UNL     1      46.019  12.008  16.671  0.00  0.00    +0.380 C 
ATOM      7  C   UNL     1      46.019  12.955  17.714  0.00  0.00    -0.111 C 
ATOM      8  C   UNL     1      47.007  13.883  17.797  0.00  0.00    +0.025 C 
ATOM      9  C   UNL     1      47.023  14.820  18.981  0.00  0.00    +0.006 C 
ATOM     10  C   UNL     1      47.547  13.979  20.155  0.00  0.00    +0.067 C 
ATOM     11  C   UNL     1      45.599  15.249  19.304  0.00  0.00    +0.046 C 
ATOM     12  C   UNL     1      45.517  16.480  20.195  0.00  0.00    +0.023 C 
ATOM     13  C   UNL     1      46.350  17.637  19.636  0.00  0.00    -0.030 C 
ATOM     14  C   UNL     1      45.900  17.864  18.186  0.00  0.00    +0.024 C 
ATOM     15  C   UNL     1      47.821  17.212  19.641  0.00  0.00    -0.014 C 
ATOM     16  C   UNL     1      48.303  16.894  21.057  0.00  0.00    +0.044 C 
ATOM     17  C   UNL     1      48.672  18.355  19.090  0.00  0.00    +0.026 C 
ATOM     18  C   UNL     1      48.548  19.575  19.994  0.00  0.00    +0.020 C 
ATOM     19  C   UNL     1      47.096  20.036  20.154  0.00  0.00    -0.043 C 
ATOM     20  C   UNL     1      47.081  20.999  21.367  0.00  0.00    +0.014 C 
ATOM     21  C   UNL     1      46.717  20.847  18.918  0.00  0.00    +0.022 C 
ATOM     22  C   UNL     1      45.298  21.399  19.028  0.00  0.00    +0.050 C 
ATOM     23  C   UNL     1      44.355  20.265  19.350  0.00  0.00    -0.109 C 
ATOM     24  C   UNL     1      43.253  20.104  18.652  0.00  0.00    -0.012 C 
ATOM     25  C   UNL     1      44.689  19.334  20.486  0.00  0.00    +0.067 C 
ATOM     26  C   UNL     1      46.150  18.894  20.461  0.00  0.00    +0.013 C 
ATOM     27  C   UNL     1      47.938  15.985  18.759  0.00  0.00    -0.004 C 
ATOM     28  C   UNL     1      48.840  15.998  17.769  0.00  0.00    -0.047 C 
ATOM     29  C   UNL     1      48.949  14.966  16.827  0.00  0.00    +0.145 C 
ATOM     30  O   UNL     1      45.105  11.203  16.578  0.00  0.00    -0.490 OA
ATOM     31  C   UNL     1      48.017  13.929  16.806  0.00  0.00    -0.105 C 
ENDROOT
BRANCH   3   4
ATOM      4  O   UNL     1      47.122  11.038  14.767  0.00  0.00    -0.495 OA
ATOM      5  H   UNL     1      47.762  11.179  13.884  0.00  0.00    +0.437 HD
ENDBRANCH   3   4
TORSDOF 1
ENDMDL
MODEL 5
REMARK VINA RESULT:      -6.7      4.527      7.055
REMARK  Name = ZINC31761332
REMARK  6 active torsions:
REMARK  status: ('A' for Active; 'I' for Inactive)
REMARK    1  A    between atoms: C1_1  and  C2_2
REMARK    2  A    between atoms: C3_3  and  O2_31
REMARK    3  A    between atoms: C11_12  and  C28_30
REMARK    4  A    between atoms: C14_15  and  C27_29
REMARK    5  A    between atoms: C15_16  and  C26_28
REMARK    6  A    between atoms: C18_19  and  C25_27
REMARK                            x       y       z     vdW  Elec       q    Type
REMARK                         _______ _______ _______ _____ _____    ______ ____
ROOT
ATOM      1  C   UNL     1      47.400  11.923  14.796  0.00  0.00    +0.105 C 
ATOM      2  C   UNL     1      47.017  12.503  16.132  0.00  0.00    -0.082 C 
ATOM      3  C   UNL     1      45.802  12.188  16.660  0.00  0.00    +0.030 C 
ATOM      6  C   UNL     1      45.419  12.717  17.915  0.00  0.00    +0.380 C 
ATOM      7  C   UNL     1      46.322  13.514  18.645  0.00  0.00    -0.111 C 
ATOM      8  C   UNL     1      47.541  13.818  18.128  0.00  0.00    +0.025 C 
ATOM      9  C   UNL     1      48.515  14.595  18.980  0.00  0.00    +0.006 C 
ATOM     10  C   UNL     1      49.063  13.581  19.995  0.00  0.00    +0.067 C 
ATOM     11  C   UNL     1      47.765  15.674  19.747  0.00  0.00    +0.046 C 
ATOM     12  C   UNL     1      48.666  16.761  20.315  0.00  0.00    +0.023 C 
ATOM     13  C   UNL     1      49.580  17.355  19.239  0.00  0.00    -0.030 C 
ATOM     14  C   UNL     1      48.684  17.807  18.078  0.00  0.00    +0.024 C 
ATOM     15  C   UNL     1      50.516  16.248  18.746  0.00  0.00    -0.014 C 
ATOM     16  C   UNL     1      51.381  15.702  19.883  0.00  0.00    +0.044 C 
ATOM     17  C   UNL     1      51.441  16.820  17.672  0.00  0.00    +0.026 C 
ATOM     18  C   UNL     1      52.312  17.918  18.271  0.00  0.00    +0.020 C 
ATOM     19  C   UNL     1      51.481  19.042  18.896  0.00  0.00    -0.043 C 
ATOM     20  C   UNL     1      52.457  19.858  19.782  0.00  0.00    +0.014 C 
ATOM     21  C   UNL     1      51.003  19.960  17.775  0.00  0.00    +0.022 C 
ATOM     22  C   UNL     1      50.217  21.148  18.324  0.00  0.00    +0.050 C 
ATOM     23  C   UNL     1      49.121  20.634  19.226  0.00  0.00    -0.109 C 
ATOM     24  C   UNL     1      47.887  21.063  19.079  0.00  0.00    -0.012 C 
ATOM     25  C   UNL     1      49.466  19.638  20.303  0.00  0.00    +0.067 C 
ATOM     26  C   UNL     1      50.373  18.524  19.790  0.00  0.00    +0.013 C 
ATOM     27  C   UNL     1      49.648  15.147  18.171  0.00  0.00    -0.004 C 
ATOM     28  C   UNL     1      49.898  14.726  16.925  0.00  0.00    -0.047 C 
ATOM     29  C   UNL     1      49.086  13.798  16.258  0.00  0.00    +0.145 C 
ATOM     30  O   UNL     1      44.308  12.481  18.367  0.00  0.00    -0.490 OA
ATOM     31  C   UNL     1      47.888  13.370  16.831  0.00  0.00    -0.105 C 
ENDROOT
BRANCH   3   4
ATOM      4  O   UNL     1      44.961  11.363  15.980  0.00  0.00    -0.495 OA
ATOM      5  H   UNL     1      45.369  10.530  15.388  0.00  0.00    +0.437 HD
ENDBRANCH   3   4
TORSDOF 1
ENDMDL
MODEL 6
REMARK VINA RESULT:      -6.4      5.053      8.226
REMARK  Name = ZINC31761332
REMARK  6 active torsions:
REMARK  status: ('A' for Active; 'I' for Inactive)
REMARK    1  A    between atoms: C1_1  and  C2_2
REMARK    2  A    between atoms: C3_3  and  O2_31
REMARK    3  A    between atoms: C11_12  and  C28_30
REMARK    4  A    between atoms: C14_15  and  C27_29
REMARK    5  A    between atoms: C15_16  and  C26_28
REMARK    6  A    between atoms: C18_19  and  C25_27
REMARK                            x       y       z     vdW  Elec       q    Type
REMARK                         _______ _______ _______ _____ _____    ______ ____
ROOT
ATOM      1  C   UNL     1      49.551  20.794  19.442  0.00  0.00    +0.105 C 
ATOM      2  C   UNL     1      50.337  19.896  18.523  0.00  0.00    -0.082 C 
ATOM      3  C   UNL     1      51.111  20.462  17.557  0.00  0.00    +0.030 C 
ATOM      6  C   UNL     1      51.862  19.642  16.683  0.00  0.00    +0.380 C 
ATOM      7  C   UNL     1      51.858  18.244  16.856  0.00  0.00    -0.111 C 
ATOM      8  C   UNL     1      51.097  17.677  17.828  0.00  0.00    +0.025 C 
ATOM      9  C   UNL     1      51.192  16.185  18.043  0.00  0.00    +0.006 C 
ATOM     10  C   UNL     1      52.520  15.966  18.783  0.00  0.00    +0.067 C 
ATOM     11  C   UNL     1      51.282  15.486  16.694  0.00  0.00    +0.046 C 
ATOM     12  C   UNL     1      50.979  13.996  16.755  0.00  0.00    +0.023 C 
ATOM     13  C   UNL     1      49.644  13.720  17.454  0.00  0.00    -0.030 C 
ATOM     14  C   UNL     1      48.575  14.563  16.746  0.00  0.00    +0.024 C 
ATOM     15  C   UNL     1      49.764  14.184  18.908  0.00  0.00    -0.014 C 
ATOM     16  C   UNL     1      50.872  13.431  19.644  0.00  0.00    +0.044 C 
ATOM     17  C   UNL     1      48.443  13.915  19.627  0.00  0.00    +0.026 C 
ATOM     18  C   UNL     1      48.161  12.417  19.650  0.00  0.00    +0.020 C 
ATOM     19  C   UNL     1      48.123  11.812  18.243  0.00  0.00    -0.043 C 
ATOM     20  C   UNL     1      48.222  10.277  18.432  0.00  0.00    +0.014 C 
ATOM     21  C   UNL     1      46.757  12.112  17.634  0.00  0.00    +0.022 C 
ATOM     22  C   UNL     1      46.614  11.485  16.250  0.00  0.00    +0.050 C 
ATOM     23  C   UNL     1      47.788  11.904  15.399  0.00  0.00    -0.109 C 
ATOM     24  C   UNL     1      47.591  12.385  14.191  0.00  0.00    -0.012 C 
ATOM     25  C   UNL     1      49.182  11.751  15.948  0.00  0.00    +0.067 C 
ATOM     26  C   UNL     1      49.294  12.246  17.386  0.00  0.00    +0.013 C 
ATOM     27  C   UNL     1      50.065  15.669  18.883  0.00  0.00    -0.004 C 
ATOM     28  C   UNL     1      49.277  16.489  19.591  0.00  0.00    -0.047 C 
ATOM     29  C   UNL     1      49.396  17.885  19.545  0.00  0.00    +0.145 C 
ATOM     30  O   UNL     1      52.515  20.143  15.780  0.00  0.00    -0.490 OA
ATOM     31  C   UNL     1      50.271  18.488  18.641  0.00  0.00    -0.105 C 
ENDROOT
BRANCH   3   4
ATOM      4  O   UNL     1      51.164  21.816  17.438  0.00  0.00    -0.495 OA
ATOM      5  H   UNL     1      50.244  22.412  17.534  0.00  0.00    +0.437 HD
ENDBRANCH   3   4
TORSDOF 1
ENDMDL
MODEL 7
REMARK VINA RESULT:      -6.4      4.207      7.293
REMARK  Name = ZINC31761332
REMARK  6 active torsions:
REMARK  status: ('A' for Active; 'I' for Inactive)
REMARK    1  A    between atoms: C1_1  and  C2_2
REMARK    2  A    between atoms: C3_3  and  O2_31
REMARK    3  A    between atoms: C11_12  and  C28_30
REMARK    4  A    between atoms: C14_15  and  C27_29
REMARK    5  A    between atoms: C15_16  and  C26_28
REMARK    6  A    between atoms: C18_19  and  C25_27
REMARK                            x       y       z     vdW  Elec       q    Type
REMARK                         _______ _______ _______ _____ _____    ______ ____
ROOT
ATOM      1  C   UNL     1      52.579  20.654  17.077  0.00  0.00    +0.105 C 
ATOM      2  C   UNL     1      51.678  20.401  18.257  0.00  0.00    -0.082 C 
ATOM      3  C   UNL     1      51.889  21.100  19.406  0.00  0.00    +0.030 C 
ATOM      6  C   UNL     1      51.055  20.884  20.528  0.00  0.00    +0.380 C 
ATOM      7  C   UNL     1      49.968  19.993  20.433  0.00  0.00    -0.111 C 
ATOM      8  C   UNL     1      49.747  19.304  19.283  0.00  0.00    +0.025 C 
ATOM      9  C   UNL     1      48.518  18.431  19.189  0.00  0.00    +0.006 C 
ATOM     10  C   UNL     1      47.347  19.401  18.978  0.00  0.00    +0.067 C 
ATOM     11  C   UNL     1      48.306  17.714  20.515  0.00  0.00    +0.046 C 
ATOM     12  C   UNL     1      47.362  16.524  20.424  0.00  0.00    +0.023 C 
ATOM     13  C   UNL     1      47.780  15.557  19.312  0.00  0.00    -0.030 C 
ATOM     14  C   UNL     1      49.251  15.192  19.554  0.00  0.00    +0.024 C 
ATOM     15  C   UNL     1      47.662  16.290  17.973  0.00  0.00    -0.014 C 
ATOM     16  C   UNL     1      46.226  16.749  17.715  0.00  0.00    +0.044 C 
ATOM     17  C   UNL     1      48.072  15.341  16.848  0.00  0.00    +0.026 C 
ATOM     18  C   UNL     1      47.120  14.152  16.800  0.00  0.00    +0.020 C 
ATOM     19  C   UNL     1      47.071  13.394  18.130  0.00  0.00    -0.043 C 
ATOM     20  C   UNL     1      45.815  12.489  18.064  0.00  0.00    +0.014 C 
ATOM     21  C   UNL     1      48.291  12.481  18.202  0.00  0.00    +0.022 C 
ATOM     22  C   UNL     1      48.283  11.639  19.474  0.00  0.00    +0.050 C 
ATOM     23  C   UNL     1      48.110  12.552  20.664  0.00  0.00    -0.109 C 
ATOM     24  C   UNL     1      48.914  12.449  21.700  0.00  0.00    -0.012 C 
ATOM     25  C   UNL     1      46.999  13.568  20.652  0.00  0.00    +0.067 C 
ATOM     26  C   UNL     1      46.912  14.313  19.323  0.00  0.00    +0.013 C 
ATOM     27  C   UNL     1      48.593  17.484  18.031  0.00  0.00    -0.004 C 
ATOM     28  C   UNL     1      49.494  17.635  17.051  0.00  0.00    -0.047 C 
ATOM     29  C   UNL     1      50.475  18.636  17.068  0.00  0.00    +0.145 C 
ATOM     30  O   UNL     1      51.275  21.469  21.578  0.00  0.00    -0.490 OA
ATOM     31  C   UNL     1      50.636  19.446  18.193  0.00  0.00    -0.105 C 
ENDROOT
BRANCH   3   4
ATOM      4  O   UNL     1      52.899  22.009  19.469  0.00  0.00    -0.495 OA
ATOM      5  H   UNL     1      53.005  22.651  20.357  0.00  0.00    +0.437 HD
ENDBRANCH   3   4
TORSDOF 1
ENDMDL
MODEL 8
REMARK VINA RESULT:      -6.2      3.744      7.318
REMARK  Name = ZINC31761332
REMARK  6 active torsions:
REMARK  status: ('A' for Active; 'I' for Inactive)
REMARK    1  A    between atoms: C1_1  and  C2_2
REMARK    2  A    between atoms: C3_3  and  O2_31
REMARK    3  A    between atoms: C11_12  and  C28_30
REMARK    4  A    between atoms: C14_15  and  C27_29
REMARK    5  A    between atoms: C15_16  and  C26_28
REMARK    6  A    between atoms: C18_19  and  C25_27
REMARK                            x       y       z     vdW  Elec       q    Type
REMARK                         _______ _______ _______ _____ _____    ______ ____
ROOT
ATOM      1  C   UNL     1      50.970  15.933  16.559  0.00  0.00    +0.105 C 
ATOM      2  C   UNL     1      49.639  15.491  17.111  0.00  0.00    -0.082 C 
ATOM      3  C   UNL     1      49.096  14.327  16.660  0.00  0.00    +0.030 C 
ATOM      6  C   UNL     1      47.849  13.888  17.164  0.00  0.00    +0.380 C 
ATOM      7  C   UNL     1      47.205  14.622  18.179  0.00  0.00    -0.111 C 
ATOM      8  C   UNL     1      47.752  15.777  18.641  0.00  0.00    +0.025 C 
ATOM      9  C   UNL     1      47.080  16.485  19.793  0.00  0.00    +0.006 C 
ATOM     10  C   UNL     1      47.448  15.667  21.040  0.00  0.00    +0.067 C 
ATOM     11  C   UNL     1      45.570  16.420  19.613  0.00  0.00    +0.046 C 
ATOM     12  C   UNL     1      44.808  17.421  20.469  0.00  0.00    +0.023 C 
ATOM     13  C   UNL     1      45.344  18.844  20.286  0.00  0.00    -0.030 C 
ATOM     14  C   UNL     1      45.332  19.146  18.781  0.00  0.00    +0.024 C 
ATOM     15  C   UNL     1      46.791  18.876  20.789  0.00  0.00    -0.014 C 
ATOM     16  C   UNL     1      46.873  18.503  22.270  0.00  0.00    +0.044 C 
ATOM     17  C   UNL     1      47.346  20.289  20.619  0.00  0.00    +0.026 C 
ATOM     18  C   UNL     1      46.546  21.266  21.472  0.00  0.00    +0.020 C 
ATOM     19  C   UNL     1      45.053  21.248  21.131  0.00  0.00    -0.043 C 
ATOM     20  C   UNL     1      44.335  21.968  22.300  0.00  0.00    +0.014 C 
ATOM     21  C   UNL     1      44.842  22.090  19.875  0.00  0.00    +0.022 C 
ATOM     22  C   UNL     1      43.365  22.175  19.504  0.00  0.00    +0.050 C 
ATOM     23  C   UNL     1      42.798  20.778  19.426  0.00  0.00    -0.109 C 
ATOM     24  C   UNL     1      42.093  20.406  18.380  0.00  0.00    -0.012 C 
ATOM     25  C   UNL     1      43.039  19.826  20.568  0.00  0.00    +0.067 C 
ATOM     26  C   UNL     1      44.490  19.845  21.039  0.00  0.00    +0.013 C 
ATOM     27  C   UNL     1      47.579  17.887  19.954  0.00  0.00    -0.004 C 
ATOM     28  C   UNL     1      48.693  18.316  19.345  0.00  0.00    -0.047 C 
ATOM     29  C   UNL     1      49.430  17.519  18.459  0.00  0.00    +0.145 C 
ATOM     30  O   UNL     1      47.332  12.872  16.723  0.00  0.00    -0.490 OA
ATOM     31  C   UNL     1      48.949  16.268  18.070  0.00  0.00    -0.105 C 
ENDROOT
BRANCH   3   4
ATOM      4  O   UNL     1      49.756  13.587  15.729  0.00  0.00    -0.495 OA
ATOM      5  H   UNL     1      49.260  12.725  15.259  0.00  0.00    +0.437 HD
ENDBRANCH   3   4
TORSDOF 1
ENDMDL
MODEL 9
REMARK VINA RESULT:      -6.0      2.778      4.020
REMARK  Name = ZINC31761332
REMARK  6 active torsions:
REMARK  status: ('A' for Active; 'I' for Inactive)
REMARK    1  A    between atoms: C1_1  and  C2_2
REMARK    2  A    between atoms: C3_3  and  O2_31
REMARK    3  A    between atoms: C11_12  and  C28_30
REMARK    4  A    between atoms: C14_15  and  C27_29
REMARK    5  A    between atoms: C15_16  and  C26_28
REMARK    6  A    between atoms: C18_19  and  C25_27
REMARK                            x       y       z     vdW  Elec       q    Type
REMARK                         _______ _______ _______ _____ _____    ______ ____
ROOT
ATOM      1  C   UNL     1      41.131  18.725  22.081  0.00  0.00    +0.105 C 
ATOM      2  C   UNL     1      41.992  19.089  20.900  0.00  0.00    -0.082 C 
ATOM      3  C   UNL     1      41.473  19.892  19.932  0.00  0.00    +0.030 C 
ATOM      6  C   UNL     1      42.262  20.251  18.814  0.00  0.00    +0.380 C 
ATOM      7  C   UNL     1      43.605  19.830  18.739  0.00  0.00    -0.111 C 
ATOM      8  C   UNL     1      44.129  19.040  19.711  0.00  0.00    +0.025 C 
ATOM      9  C   UNL     1      45.596  18.687  19.643  0.00  0.00    +0.006 C 
ATOM     10  C   UNL     1      46.338  19.952  20.099  0.00  0.00    +0.067 C 
ATOM     11  C   UNL     1      45.981  18.409  18.197  0.00  0.00    +0.046 C 
ATOM     12  C   UNL     1      47.301  17.665  18.047  0.00  0.00    +0.023 C 
ATOM     13  C   UNL     1      47.332  16.394  18.901  0.00  0.00    -0.030 C 
ATOM     14  C   UNL     1      46.087  15.572  18.542  0.00  0.00    +0.024 C 
ATOM     15  C   UNL     1      47.248  16.808  20.374  0.00  0.00    -0.014 C 
ATOM     16  C   UNL     1      48.426  17.699  20.769  0.00  0.00    +0.044 C 
ATOM     17  C   UNL     1      47.282  15.555  21.246  0.00  0.00    +0.026 C 
ATOM     18  C   UNL     1      48.605  14.825  21.054  0.00  0.00    +0.020 C 
ATOM     19  C   UNL     1      48.854  14.448  19.590  0.00  0.00    -0.043 C 
ATOM     20  C   UNL     1      50.357  14.083  19.488  0.00  0.00    +0.014 C 
ATOM     21  C   UNL     1      48.054  13.186  19.281  0.00  0.00    +0.022 C 
ATOM     22  C   UNL     1      48.298  12.707  17.853  0.00  0.00    +0.050 C 
ATOM     23  C   UNL     1      48.054  13.854  16.903  0.00  0.00    -0.109 C 
ATOM     24  C   UNL     1      47.287  13.688  15.848  0.00  0.00    -0.012 C 
ATOM     25  C   UNL     1      48.712  15.182  17.174  0.00  0.00    +0.067 C 
ATOM     26  C   UNL     1      48.594  15.597  18.638  0.00  0.00    +0.013 C 
ATOM     27  C   UNL     1      45.941  17.553  20.558  0.00  0.00    -0.004 C 
ATOM     28  C   UNL     1      45.106  17.141  21.520  0.00  0.00    -0.047 C 
ATOM     29  C   UNL     1      43.826  17.684  21.699  0.00  0.00    +0.145 C 
ATOM     30  O   UNL     1      41.783  20.927  17.916  0.00  0.00    -0.490 OA
ATOM     31  C   UNL     1      43.314  18.600  20.780  0.00  0.00    -0.105 C 
ENDROOT
BRANCH   3   4
ATOM      4  O   UNL     1      40.198  20.351  20.044  0.00  0.00    -0.495 OA
ATOM      5  H   UNL     1      39.415  19.702  20.463  0.00  0.00    +0.437 HD
ENDBRANCH   3   4
TORSDOF 1
ENDMDL
