MODEL 1
REMARK VINA RESULT:      -5.9      0.000      0.000
REMARK  Name = ZINC95485945
REMARK  5 active torsions:
REMARK  status: ('A' for Active; 'I' for Inactive)
REMARK    1  A    between atoms: C1_1  and  O1_2
REMARK    2  A    between atoms: O1_2  and  C2_3
REMARK    3  A    between atoms: C4_5  and  C7_10
REMARK    4  A    between atoms: C8_11  and  C9_12
REMARK    5  A    between atoms: C13_16  and  O4_18
REMARK                            x       y       z     vdW  Elec       q    Type
REMARK                         _______ _______ _______ _____ _____    ______ ____
ROOT
ATOM      6  C   UNL     1      48.125  20.824  19.723  0.00  0.00    +0.012 C 
ATOM      7  C   UNL     1      47.259  20.866  18.690  0.00  0.00    +0.110 C 
ENDROOT
BRANCH   6   5
ATOM      3  C   UNL     1      51.421  20.903  17.947  0.00  0.00    +0.244 A 
ATOM      4  C   UNL     1      50.037  20.941  18.186  0.00  0.00    -0.083 A 
ATOM      5  C   UNL     1      49.565  20.786  19.470  0.00  0.00    +0.213 A 
ATOM     16  O   UNL     1      50.417  20.599  20.499  0.00  0.00    -0.271 OA
ATOM     17  C   UNL     1      51.746  20.558  20.304  0.00  0.00    +0.515 A 
ATOM     18  O   UNL     1      52.493  20.388  21.253  0.00  0.00    -0.483 OA
ATOM     19  C   UNL     1      52.279  20.704  19.019  0.00  0.00    -0.233 A 
BRANCH   3   2
ATOM      1  C   UNL     1      52.176  19.859  15.954  0.00  0.00    +0.264 C 
ATOM      2  O   UNL     1      51.909  21.053  16.693  0.00  0.00    -0.296 OA
ENDBRANCH   3   2
ENDBRANCH   6   5
BRANCH   7   8
ATOM      8  C   UNL     1      45.810  20.904  18.945  0.00  0.00    -0.064 A 
ATOM      9  C   UNL     1      45.008  19.809  18.613  0.00  0.00    +0.023 A 
ATOM     10  C   UNL     1      43.651  19.849  18.855  0.00  0.00    +0.030 A 
ATOM     11  C   UNL     1      43.079  20.973  19.425  0.00  0.00    +0.002 A 
ATOM     12  C   UNL     1      43.866  22.067  19.757  0.00  0.00    +0.105 A 
ATOM     15  C   UNL     1      45.231  22.035  19.527  0.00  0.00    +0.017 A 
BRANCH  12  13
ATOM     13  O   UNL     1      43.298  23.168  20.316  0.00  0.00    -0.498 OA
ATOM     14  H   UNL     1      43.632  23.379  21.199  0.00  0.00    +0.394 HD
ENDBRANCH  12  13
ENDBRANCH   7   8
TORSDOF 4
ENDMDL
MODEL 2
REMARK VINA RESULT:      -5.7      1.916      7.192
REMARK  Name = ZINC95485945
REMARK  5 active torsions:
REMARK  status: ('A' for Active; 'I' for Inactive)
REMARK    1  A    between atoms: C1_1  and  O1_2
REMARK    2  A    between atoms: O1_2  and  C2_3
REMARK    3  A    between atoms: C4_5  and  C7_10
REMARK    4  A    between atoms: C8_11  and  C9_12
REMARK    5  A    between atoms: C13_16  and  O4_18
REMARK                            x       y       z     vdW  Elec       q    Type
REMARK                         _______ _______ _______ _____ _____    ______ ____
ROOT
ATOM      6  C   UNL     1      47.685  20.496  18.748  0.00  0.00    +0.012 C 
ATOM      7  C   UNL     1      48.793  20.844  19.434  0.00  0.00    +0.110 C 
ENDROOT
BRANCH   6   5
ATOM      3  C   UNL     1      43.969  20.629  19.195  0.00  0.00    +0.244 A 
ATOM      4  C   UNL     1      45.238  20.297  18.690  0.00  0.00    -0.083 A 
ATOM      5  C   UNL     1      46.362  20.839  19.271  0.00  0.00    +0.213 A 
ATOM     16  O   UNL     1      46.258  21.683  20.317  0.00  0.00    -0.271 OA
ATOM     17  C   UNL     1      45.059  22.020  20.823  0.00  0.00    +0.515 A 
ATOM     18  O   UNL     1      44.995  22.786  21.771  0.00  0.00    -0.483 OA
ATOM     19  C   UNL     1      43.884  21.503  20.268  0.00  0.00    -0.233 A 
BRANCH   3   2
ATOM      1  C   UNL     1      41.663  20.904  18.704  0.00  0.00    +0.264 C 
ATOM      2  O   UNL     1      42.849  20.109  18.639  0.00  0.00    -0.296 OA
ENDBRANCH   3   2
ENDBRANCH   6   5
BRANCH   7   8
ATOM      8  C   UNL     1      50.123  20.498  18.907  0.00  0.00    -0.064 A 
ATOM      9  C   UNL     1      50.929  19.577  19.582  0.00  0.00    +0.023 A 
ATOM     10  C   UNL     1      52.174  19.255  19.084  0.00  0.00    +0.030 A 
ATOM     11  C   UNL     1      52.631  19.843  17.918  0.00  0.00    +0.002 A 
ATOM     12  C   UNL     1      51.839  20.760  17.241  0.00  0.00    +0.105 A 
ATOM     15  C   UNL     1      50.584  21.086  17.726  0.00  0.00    +0.017 A 
BRANCH  12  13
ATOM     13  O   UNL     1      52.294  21.335  16.096  0.00  0.00    -0.498 OA
ATOM     14  H   UNL     1      51.593  21.614  15.490  0.00  0.00    +0.394 HD
ENDBRANCH  12  13
ENDBRANCH   7   8
TORSDOF 4
ENDMDL
MODEL 3
REMARK VINA RESULT:      -5.6      0.868      2.418
REMARK  Name = ZINC95485945
REMARK  5 active torsions:
REMARK  status: ('A' for Active; 'I' for Inactive)
REMARK    1  A    between atoms: C1_1  and  O1_2
REMARK    2  A    between atoms: O1_2  and  C2_3
REMARK    3  A    between atoms: C4_5  and  C7_10
REMARK    4  A    between atoms: C8_11  and  C9_12
REMARK    5  A    between atoms: C13_16  and  O4_18
REMARK                            x       y       z     vdW  Elec       q    Type
REMARK                         _______ _______ _______ _____ _____    ______ ____
ROOT
ATOM      6  C   UNL     1      48.117  20.734  19.680  0.00  0.00    +0.012 C 
ATOM      7  C   UNL     1      47.257  21.020  18.682  0.00  0.00    +0.110 C 
ENDROOT
BRANCH   6   5
ATOM      3  C   UNL     1      51.818  20.692  20.257  0.00  0.00    +0.244 A 
ATOM      4  C   UNL     1      50.433  20.651  20.494  0.00  0.00    -0.083 A 
ATOM      5  C   UNL     1      49.559  20.776  19.437  0.00  0.00    +0.213 A 
ATOM     16  O   UNL     1      50.019  20.936  18.180  0.00  0.00    -0.271 OA
ATOM     17  C   UNL     1      51.337  20.979  17.920  0.00  0.00    +0.515 A 
ATOM     18  O   UNL     1      51.724  21.125  16.772  0.00  0.00    -0.483 OA
ATOM     19  C   UNL     1      52.268  20.863  18.957  0.00  0.00    -0.233 A 
BRANCH   3   2
ATOM      1  C   UNL     1      52.483  19.495  22.196  0.00  0.00    +0.264 C 
ATOM      2  O   UNL     1      52.696  20.572  21.281  0.00  0.00    -0.296 OA
ENDBRANCH   3   2
ENDBRANCH   6   5
BRANCH   7   8
ATOM      8  C   UNL     1      45.806  20.978  18.928  0.00  0.00    -0.064 A 
ATOM      9  C   UNL     1      45.076  19.824  18.626  0.00  0.00    +0.023 A 
ATOM     10  C   UNL     1      43.717  19.788  18.859  0.00  0.00    +0.030 A 
ATOM     11  C   UNL     1      43.072  20.892  19.388  0.00  0.00    +0.002 A 
ATOM     12  C   UNL     1      43.787  22.043  19.690  0.00  0.00    +0.105 A 
ATOM     15  C   UNL     1      45.153  22.088  19.469  0.00  0.00    +0.017 A 
BRANCH  12  13
ATOM     13  O   UNL     1      43.148  23.123  20.210  0.00  0.00    -0.498 OA
ATOM     14  H   UNL     1      43.224  23.923  19.671  0.00  0.00    +0.394 HD
ENDBRANCH  12  13
ENDBRANCH   7   8
TORSDOF 4
ENDMDL
MODEL 4
REMARK VINA RESULT:      -5.3      2.693      7.955
REMARK  Name = ZINC95485945
REMARK  5 active torsions:
REMARK  status: ('A' for Active; 'I' for Inactive)
REMARK    1  A    between atoms: C1_1  and  O1_2
REMARK    2  A    between atoms: O1_2  and  C2_3
REMARK    3  A    between atoms: C4_5  and  C7_10
REMARK    4  A    between atoms: C8_11  and  C9_12
REMARK    5  A    between atoms: C13_16  and  O4_18
REMARK                            x       y       z     vdW  Elec       q    Type
REMARK                         _______ _______ _______ _____ _____    ______ ____
ROOT
ATOM      6  C   UNL     1      45.582  19.704  18.655  0.00  0.00    +0.012 C 
ATOM      7  C   UNL     1      46.603  19.414  19.487  0.00  0.00    +0.110 C 
ENDROOT
BRANCH   6   5
ATOM      3  C   UNL     1      42.598  18.751  20.709  0.00  0.00    +0.244 A 
ATOM      4  C   UNL     1      43.926  18.864  20.263  0.00  0.00    -0.083 A 
ATOM      5  C   UNL     1      44.201  19.585  19.123  0.00  0.00    +0.213 A 
ATOM     16  O   UNL     1      43.209  20.183  18.432  0.00  0.00    -0.271 OA
ATOM     17  C   UNL     1      41.929  20.094  18.832  0.00  0.00    +0.515 A 
ATOM     18  O   UNL     1      41.053  20.646  18.187  0.00  0.00    -0.483 OA
ATOM     19  C   UNL     1      41.594  19.370  19.980  0.00  0.00    -0.233 A 
BRANCH   3   2
ATOM      1  C   UNL     1      43.266  17.081  22.258  0.00  0.00    +0.264 C 
ATOM      2  O   UNL     1      42.304  18.047  21.828  0.00  0.00    -0.296 OA
ENDBRANCH   3   2
ENDBRANCH   6   5
BRANCH   7   8
ATOM      8  C   UNL     1      47.992  19.534  19.015  0.00  0.00    -0.064 A 
ATOM      9  C   UNL     1      48.674  20.749  19.139  0.00  0.00    +0.023 A 
ATOM     10  C   UNL     1      49.976  20.857  18.697  0.00  0.00    +0.030 A 
ATOM     11  C   UNL     1      50.610  19.767  18.127  0.00  0.00    +0.002 A 
ATOM     12  C   UNL     1      49.942  18.557  17.998  0.00  0.00    +0.105 A 
ATOM     15  C   UNL     1      48.637  18.433  18.446  0.00  0.00    +0.017 A 
BRANCH  12  13
ATOM     13  O   UNL     1      50.571  17.490  17.438  0.00  0.00    -0.498 OA
ATOM     14  H   UNL     1      50.534  17.473  16.472  0.00  0.00    +0.394 HD
ENDBRANCH  12  13
ENDBRANCH   7   8
TORSDOF 4
ENDMDL
MODEL 5
REMARK VINA RESULT:      -5.3      2.518      7.515
REMARK  Name = ZINC95485945
REMARK  5 active torsions:
REMARK  status: ('A' for Active; 'I' for Inactive)
REMARK    1  A    between atoms: C1_1  and  O1_2
REMARK    2  A    between atoms: O1_2  and  C2_3
REMARK    3  A    between atoms: C4_5  and  C7_10
REMARK    4  A    between atoms: C8_11  and  C9_12
REMARK    5  A    between atoms: C13_16  and  O4_18
REMARK                            x       y       z     vdW  Elec       q    Type
REMARK                         _______ _______ _______ _____ _____    ______ ____
ROOT
ATOM      6  C   UNL     1      47.019  19.952  18.705  0.00  0.00    +0.012 C 
ATOM      7  C   UNL     1      48.086  19.244  19.131  0.00  0.00    +0.110 C 
ENDROOT
BRANCH   6   5
ATOM      3  C   UNL     1      43.325  20.083  19.307  0.00  0.00    +0.244 A 
ATOM      4  C   UNL     1      44.613  20.420  18.858  0.00  0.00    -0.083 A 
ATOM      5  C   UNL     1      45.677  19.604  19.171  0.00  0.00    +0.213 A 
ATOM     16  O   UNL     1      45.495  18.486  19.902  0.00  0.00    -0.271 OA
ATOM     17  C   UNL     1      44.275  18.135  20.347  0.00  0.00    +0.515 A 
ATOM     18  O   UNL     1      44.140  17.118  21.006  0.00  0.00    -0.483 OA
ATOM     19  C   UNL     1      43.161  18.931  20.062  0.00  0.00    -0.233 A 
BRANCH   3   2
ATOM      1  C   UNL     1      41.175  20.259  18.317  0.00  0.00    +0.264 C 
ATOM      2  O   UNL     1      42.264  20.870  19.012  0.00  0.00    -0.296 OA
ENDBRANCH   3   2
ENDBRANCH   6   5
BRANCH   7   8
ATOM      8  C   UNL     1      49.436  19.595  18.661  0.00  0.00    -0.064 A 
ATOM      9  C   UNL     1      49.911  20.903  18.802  0.00  0.00    +0.023 A 
ATOM     10  C   UNL     1      51.177  21.227  18.361  0.00  0.00    +0.030 A 
ATOM     11  C   UNL     1      51.980  20.263  17.778  0.00  0.00    +0.002 A 
ATOM     12  C   UNL     1      51.517  18.962  17.633  0.00  0.00    +0.105 A 
ATOM     15  C   UNL     1      50.251  18.622  18.078  0.00  0.00    +0.017 A 
BRANCH  12  13
ATOM     13  O   UNL     1      52.310  18.019  17.059  0.00  0.00    -0.498 OA
ATOM     14  H   UNL     1      51.939  17.126  17.078  0.00  0.00    +0.394 HD
ENDBRANCH  12  13
ENDBRANCH   7   8
TORSDOF 4
ENDMDL
MODEL 6
REMARK VINA RESULT:      -5.2      1.946      7.175
REMARK  Name = ZINC95485945
REMARK  5 active torsions:
REMARK  status: ('A' for Active; 'I' for Inactive)
REMARK    1  A    between atoms: C1_1  and  O1_2
REMARK    2  A    between atoms: O1_2  and  C2_3
REMARK    3  A    between atoms: C4_5  and  C7_10
REMARK    4  A    between atoms: C8_11  and  C9_12
REMARK    5  A    between atoms: C13_16  and  O4_18
REMARK                            x       y       z     vdW  Elec       q    Type
REMARK                         _______ _______ _______ _____ _____    ______ ____
ROOT
ATOM      6  C   UNL     1      47.587  19.915  18.950  0.00  0.00    +0.012 C 
ATOM      7  C   UNL     1      48.615  20.782  19.058  0.00  0.00    +0.110 C 
ENDROOT
BRANCH   6   5
ATOM      3  C   UNL     1      44.667  22.103  19.797  0.00  0.00    +0.244 A 
ATOM      4  C   UNL     1      45.978  21.685  19.507  0.00  0.00    -0.083 A 
ATOM      5  C   UNL     1      46.225  20.354  19.252  0.00  0.00    +0.213 A 
ATOM     16  O   UNL     1      45.224  19.451  19.278  0.00  0.00    -0.271 OA
ATOM     17  C   UNL     1      43.961  19.818  19.552  0.00  0.00    +0.515 A 
ATOM     18  O   UNL     1      43.075  18.979  19.568  0.00  0.00    -0.483 OA
ATOM     19  C   UNL     1      43.654  21.156  19.824  0.00  0.00    -0.233 A 
BRANCH   3   2
ATOM      1  C   UNL     1      44.387  24.296  18.933  0.00  0.00    +0.264 C 
ATOM      2  O   UNL     1      44.400  23.405  20.051  0.00  0.00    -0.296 OA
ENDBRANCH   3   2
ENDBRANCH   6   5
BRANCH   7   8
ATOM      8  C   UNL     1      49.985  20.339  18.753  0.00  0.00    -0.064 A 
ATOM      9  C   UNL     1      50.205  19.098  18.147  0.00  0.00    +0.023 A 
ATOM     10  C   UNL     1      51.490  18.687  17.863  0.00  0.00    +0.030 A 
ATOM     11  C   UNL     1      52.566  19.499  18.177  0.00  0.00    +0.002 A 
ATOM     12  C   UNL     1      52.359  20.732  18.781  0.00  0.00    +0.105 A 
ATOM     15  C   UNL     1      51.073  21.159  19.064  0.00  0.00    +0.017 A 
BRANCH  12  13
ATOM     13  O   UNL     1      53.420  21.525  19.087  0.00  0.00    -0.498 OA
ATOM     14  H   UNL     1      53.896  21.255  19.885  0.00  0.00    +0.394 HD
ENDBRANCH  12  13
ENDBRANCH   7   8
TORSDOF 4
ENDMDL
MODEL 7
REMARK VINA RESULT:      -5.1      2.015      2.924
REMARK  Name = ZINC95485945
REMARK  5 active torsions:
REMARK  status: ('A' for Active; 'I' for Inactive)
REMARK    1  A    between atoms: C1_1  and  O1_2
REMARK    2  A    between atoms: O1_2  and  C2_3
REMARK    3  A    between atoms: C4_5  and  C7_10
REMARK    4  A    between atoms: C8_11  and  C9_12
REMARK    5  A    between atoms: C13_16  and  O4_18
REMARK                            x       y       z     vdW  Elec       q    Type
REMARK                         _______ _______ _______ _____ _____    ______ ____
ROOT
ATOM      6  C   UNL     1      49.078  20.820  19.512  0.00  0.00    +0.012 C 
ATOM      7  C   UNL     1      47.775  20.735  19.174  0.00  0.00    +0.110 C 
ENDROOT
BRANCH   6   5
ATOM      3  C   UNL     1      51.410  18.349  17.935  0.00  0.00    +0.244 A 
ATOM      4  C   UNL     1      50.428  18.906  18.773  0.00  0.00    -0.083 A 
ATOM      5  C   UNL     1      50.099  20.237  18.642  0.00  0.00    +0.213 A 
ATOM     16  O   UNL     1      50.707  21.009  17.719  0.00  0.00    -0.271 OA
ATOM     17  C   UNL     1      51.650  20.506  16.902  0.00  0.00    +0.515 A 
ATOM     18  O   UNL     1      52.183  21.229  16.076  0.00  0.00    -0.483 OA
ATOM     19  C   UNL     1      52.027  19.163  16.996  0.00  0.00    -0.233 A 
BRANCH   3   2
ATOM      1  C   UNL     1      51.423  16.192  16.945  0.00  0.00    +0.264 C 
ATOM      2  O   UNL     1      51.750  17.043  18.045  0.00  0.00    -0.296 OA
ENDBRANCH   3   2
ENDBRANCH   6   5
BRANCH   7   8
ATOM      8  C   UNL     1      46.749  21.323  20.051  0.00  0.00    -0.064 A 
ATOM      9  C   UNL     1      47.081  21.734  21.345  0.00  0.00    +0.023 A 
ATOM     10  C   UNL     1      46.116  22.284  22.163  0.00  0.00    +0.030 A 
ATOM     11  C   UNL     1      44.818  22.430  21.707  0.00  0.00    +0.002 A 
ATOM     12  C   UNL     1      44.477  22.024  20.424  0.00  0.00    +0.105 A 
ATOM     15  C   UNL     1      45.438  21.477  19.591  0.00  0.00    +0.017 A 
BRANCH  12  13
ATOM     13  O   UNL     1      43.200  22.170  19.982  0.00  0.00    -0.498 OA
ATOM     14  H   UNL     1      43.131  22.496  19.074  0.00  0.00    +0.394 HD
ENDBRANCH  12  13
ENDBRANCH   7   8
TORSDOF 4
ENDMDL
MODEL 8
REMARK VINA RESULT:      -5.1      2.478      7.237
REMARK  Name = ZINC95485945
REMARK  5 active torsions:
REMARK  status: ('A' for Active; 'I' for Inactive)
REMARK    1  A    between atoms: C1_1  and  O1_2
REMARK    2  A    between atoms: O1_2  and  C2_3
REMARK    3  A    between atoms: C4_5  and  C7_10
REMARK    4  A    between atoms: C8_11  and  C9_12
REMARK    5  A    between atoms: C13_16  and  O4_18
REMARK                            x       y       z     vdW  Elec       q    Type
REMARK                         _______ _______ _______ _____ _____    ______ ____
ROOT
ATOM      6  C   UNL     1      47.919  20.345  19.067  0.00  0.00    +0.012 C 
ATOM      7  C   UNL     1      49.192  20.731  19.284  0.00  0.00    +0.110 C 
ENDROOT
BRANCH   6   5
ATOM      3  C   UNL     1      45.288  19.908  21.697  0.00  0.00    +0.244 A 
ATOM      4  C   UNL     1      46.281  19.616  20.747  0.00  0.00    -0.083 A 
ATOM      5  C   UNL     1      46.885  20.644  20.058  0.00  0.00    +0.213 A 
ATOM     16  O   UNL     1      46.533  21.926  20.286  0.00  0.00    -0.271 OA
ATOM     17  C   UNL     1      45.586  22.238  21.188  0.00  0.00    +0.515 A 
ATOM     18  O   UNL     1      45.289  23.406  21.375  0.00  0.00    -0.483 OA
ATOM     19  C   UNL     1      44.937  21.232  21.912  0.00  0.00    -0.233 A 
BRANCH   3   2
ATOM      1  C   UNL     1      43.252  18.929  22.425  0.00  0.00    +0.264 C 
ATOM      2  O   UNL     1      44.680  18.913  22.386  0.00  0.00    -0.296 OA
ENDBRANCH   3   2
ENDBRANCH   6   5
BRANCH   7   8
ATOM      8  C   UNL     1      50.232  20.429  18.287  0.00  0.00    -0.064 A 
ATOM      9  C   UNL     1      50.717  21.437  17.448  0.00  0.00    +0.023 A 
ATOM     10  C   UNL     1      51.692  21.150  16.516  0.00  0.00    +0.030 A 
ATOM     11  C   UNL     1      52.192  19.864  16.406  0.00  0.00    +0.002 A 
ATOM     12  C   UNL     1      51.717  18.856  17.234  0.00  0.00    +0.105 A 
ATOM     15  C   UNL     1      50.745  19.133  18.179  0.00  0.00    +0.017 A 
BRANCH  12  13
ATOM     13  O   UNL     1      52.213  17.595  17.120  0.00  0.00    -0.498 OA
ATOM     14  H   UNL     1      52.577  17.391  16.247  0.00  0.00    +0.394 HD
ENDBRANCH  12  13
ENDBRANCH   7   8
TORSDOF 4
ENDMDL
MODEL 9
REMARK VINA RESULT:      -5.0      4.927      7.941
REMARK  Name = ZINC95485945
REMARK  5 active torsions:
REMARK  status: ('A' for Active; 'I' for Inactive)
REMARK    1  A    between atoms: C1_1  and  O1_2
REMARK    2  A    between atoms: O1_2  and  C2_3
REMARK    3  A    between atoms: C4_5  and  C7_10
REMARK    4  A    between atoms: C8_11  and  C9_12
REMARK    5  A    between atoms: C13_16  and  O4_18
REMARK                            x       y       z     vdW  Elec       q    Type
REMARK                         _______ _______ _______ _____ _____    ______ ____
ROOT
ATOM      6  C   UNL     1      48.361  16.906  17.229  0.00  0.00    +0.012 C 
ATOM      7  C   UNL     1      49.023  17.532  18.223  0.00  0.00    +0.110 C 
ENDROOT
BRANCH   6   5
ATOM      3  C   UNL     1      45.825  14.709  18.894  0.00  0.00    +0.244 A 
ATOM      4  C   UNL     1      46.647  15.812  18.608  0.00  0.00    -0.083 A 
ATOM      5  C   UNL     1      47.503  15.759  17.530  0.00  0.00    +0.213 A 
ATOM     16  O   UNL     1      47.559  14.663  16.748  0.00  0.00    -0.271 OA
ATOM     17  C   UNL     1      46.785  13.591  16.995  0.00  0.00    +0.515 A 
ATOM     18  O   UNL     1      46.857  12.612  16.270  0.00  0.00    -0.483 OA
ATOM     19  C   UNL     1      45.902  13.589  18.079  0.00  0.00    -0.233 A 
BRANCH   3   2
ATOM      1  C   UNL     1      45.022  15.892  20.788  0.00  0.00    +0.264 C 
ATOM      2  O   UNL     1      44.976  14.737  19.948  0.00  0.00    -0.296 OA
ENDBRANCH   3   2
ENDBRANCH   6   5
BRANCH   7   8
ATOM      8  C   UNL     1      49.886  18.685  17.919  0.00  0.00    -0.064 A 
ATOM      9  C   UNL     1      49.727  19.885  18.618  0.00  0.00    +0.023 A 
ATOM     10  C   UNL     1      50.538  20.963  18.331  0.00  0.00    +0.030 A 
ATOM     11  C   UNL     1      51.509  20.862  17.350  0.00  0.00    +0.002 A 
ATOM     12  C   UNL     1      51.674  19.675  16.649  0.00  0.00    +0.105 A 
ATOM     15  C   UNL     1      50.872  18.583  16.934  0.00  0.00    +0.017 A 
BRANCH  12  13
ATOM     13  O   UNL     1      52.630  19.581  15.687  0.00  0.00    -0.498 OA
ATOM     14  H   UNL     1      52.348  19.903  14.819  0.00  0.00    +0.394 HD
ENDBRANCH  12  13
ENDBRANCH   7   8
TORSDOF 4
ENDMDL
