MODEL 1
REMARK VINA RESULT:      -6.5      0.000      0.000
REMARK  Name = ZINC95486246
REMARK  14 active torsions:
REMARK  status: ('A' for Active; 'I' for Inactive)
REMARK    1  A    between atoms: C1_1  and  C2_2
REMARK    2  A    between atoms: C2_2  and  C3_4
REMARK    3  A    between atoms: C2_2  and  C9_11
REMARK    4  A    between atoms: C3_4  and  C4_5
REMARK    5  A    between atoms: C4_5  and  C5_6
REMARK    6  A    between atoms: C6_7  and  C7_8
REMARK    7  A    between atoms: C6_7  and  C8_9
REMARK    8  A    between atoms: C8_9  and  O1_10
REMARK    9  A    between atoms: C12_15  and  C30_37
REMARK   10  A    between atoms: C13_16  and  C29_36
REMARK   11  A    between atoms: C21_26  and  C28_35
REMARK   12  A    between atoms: C24_29  and  O3_34
REMARK   13  A    between atoms: C25_31  and  C26_32
REMARK   14  A    between atoms: C25_31  and  C27_33
REMARK                            x       y       z     vdW  Elec       q    Type
REMARK                         _______ _______ _______ _____ _____    ______ ____
ROOT
ATOM      3  C   UNL     1      48.739  15.883  18.467  0.00  0.00    +0.007 C 
ATOM      4  C   UNL     1      48.161  16.117  17.048  0.00  0.00    +0.017 C 
ATOM      5  C   UNL     1      47.265  17.383  17.143  0.00  0.00    +0.033 C 
ATOM      6  C   UNL     1      46.895  17.426  18.627  0.00  0.00    -0.044 C 
ATOM      7  C   UNL     1      45.847  16.354  18.932  0.00  0.00    +0.045 C 
ATOM      8  C   UNL     1      46.439  18.749  19.162  0.00  0.00    -0.010 C 
ATOM      9  C   UNL     1      45.716  19.683  18.228  0.00  0.00    +0.076 C 
ATOM     10  C   UNL     1      45.643  21.096  18.804  0.00  0.00    +0.021 C 
ATOM     11  C   UNL     1      45.157  20.986  20.252  0.00  0.00    +0.012 C 
ATOM     12  C   UNL     1      46.262  20.332  21.085  0.00  0.00    +0.005 C 
ATOM     13  C   UNL     1      45.751  20.067  22.502  0.00  0.00    +0.024 C 
ATOM     14  C   UNL     1      47.484  21.253  21.146  0.00  0.00    +0.026 C 
ATOM     15  C   UNL     1      47.089  22.604  21.744  0.00  0.00    -0.014 C 
ATOM     16  C   UNL     1      46.027  23.254  20.853  0.00  0.00    +0.169 C 
ATOM     19  C   UNL     1      44.803  22.360  20.806  0.00  0.00    -0.044 C 
ATOM     20  C   UNL     1      44.243  22.206  22.221  0.00  0.00    +0.030 C 
ATOM     21  C   UNL     1      43.745  23.009  19.912  0.00  0.00    +0.029 C 
ATOM     22  C   UNL     1      46.685  19.027  20.448  0.00  0.00    -0.189 C 
ATOM     23  C   UNL     1      47.402  18.078  21.319  0.00  0.00    +0.395 C 
ATOM     24  O   UNL     1      47.585  18.349  22.488  0.00  0.00    -0.445 OA
ATOM     25  C   UNL     1      47.913  16.762  20.759  0.00  0.00    +0.045 C 
ATOM     26  C   UNL     1      48.243  17.059  19.303  0.00  0.00    -0.045 C 
ATOM     27  C   UNL     1      49.222  18.230  19.202  0.00  0.00    +0.034 C 
ENDROOT
BRANCH   3   2
ATOM      1  C   UNL     1      50.788  14.588  19.071  0.00  0.00    +0.014 C 
ATOM      2  C   UNL     1      50.268  15.873  18.422  0.00  0.00    -0.009 C 
BRANCH   2  28
ATOM     28  C   UNL     1      50.736  15.936  16.967  0.00  0.00    +0.016 C 
BRANCH  28  29
ATOM     29  C   UNL     1      51.911  16.909  16.850  0.00  0.00    +0.044 C 
BRANCH  29  30
ATOM     30  C   UNL     1      51.420  18.226  16.307  0.00  0.00    -0.013 C 
ATOM     31  C   UNL     1      51.806  19.349  16.862  0.00  0.00    -0.156 C 
ATOM     35  C   UNL     1      52.650  19.320  18.109  0.00  0.00    +0.083 C 
BRANCH  31  32
ATOM     32  C   UNL     1      51.407  20.667  16.251  0.00  0.00    +0.222 C 
BRANCH  32  33
ATOM     33  O   UNL     1      52.578  21.369  15.826  0.00  0.00    -0.572 OA
ATOM     34  H   UNL     1      52.393  22.195  15.359  0.00  0.00    +0.382 HD
ENDBRANCH  32  33
ENDBRANCH  31  32
ENDBRANCH  29  30
ENDBRANCH  28  29
ENDBRANCH   2  28
ENDBRANCH   3   2
BRANCH  16  17
ATOM     17  O   UNL     1      45.672  24.532  21.387  0.00  0.00    -0.563 OA
ATOM     18  H   UNL     1      45.213  25.106  20.759  0.00  0.00    +0.375 HD
ENDBRANCH  16  17
TORSDOF 7
ENDMDL
MODEL 2
REMARK VINA RESULT:      -6.2      1.558      2.038
REMARK  Name = ZINC95486246
REMARK  14 active torsions:
REMARK  status: ('A' for Active; 'I' for Inactive)
REMARK    1  A    between atoms: C1_1  and  C2_2
REMARK    2  A    between atoms: C2_2  and  C3_4
REMARK    3  A    between atoms: C2_2  and  C9_11
REMARK    4  A    between atoms: C3_4  and  C4_5
REMARK    5  A    between atoms: C4_5  and  C5_6
REMARK    6  A    between atoms: C6_7  and  C7_8
REMARK    7  A    between atoms: C6_7  and  C8_9
REMARK    8  A    between atoms: C8_9  and  O1_10
REMARK    9  A    between atoms: C12_15  and  C30_37
REMARK   10  A    between atoms: C13_16  and  C29_36
REMARK   11  A    between atoms: C21_26  and  C28_35
REMARK   12  A    between atoms: C24_29  and  O3_34
REMARK   13  A    between atoms: C25_31  and  C26_32
REMARK   14  A    between atoms: C25_31  and  C27_33
REMARK                            x       y       z     vdW  Elec       q    Type
REMARK                         _______ _______ _______ _____ _____    ______ ____
ROOT
ATOM      3  C   UNL     1      50.209  15.624  19.104  0.00  0.00    +0.007 C 
ATOM      4  C   UNL     1      50.092  15.768  17.566  0.00  0.00    +0.017 C 
ATOM      5  C   UNL     1      48.807  16.599  17.300  0.00  0.00    +0.033 C 
ATOM      6  C   UNL     1      47.978  16.355  18.564  0.00  0.00    -0.044 C 
ATOM      7  C   UNL     1      47.379  14.948  18.528  0.00  0.00    +0.045 C 
ATOM      8  C   UNL     1      46.905  17.357  18.861  0.00  0.00    -0.010 C 
ATOM      9  C   UNL     1      46.236  18.047  17.703  0.00  0.00    +0.076 C 
ATOM     10  C   UNL     1      45.445  19.269  18.166  0.00  0.00    +0.021 C 
ATOM     11  C   UNL     1      44.587  18.845  19.361  0.00  0.00    +0.012 C 
ATOM     12  C   UNL     1      45.514  18.564  20.547  0.00  0.00    +0.005 C 
ATOM     13  C   UNL     1      44.703  17.990  21.710  0.00  0.00    +0.024 C 
ATOM     14  C   UNL     1      46.199  19.860  20.992  0.00  0.00    +0.026 C 
ATOM     15  C   UNL     1      45.147  20.903  21.367  0.00  0.00    -0.014 C 
ATOM     16  C   UNL     1      44.278  21.202  20.143  0.00  0.00    +0.169 C 
ATOM     19  C   UNL     1      43.576  19.930  19.709  0.00  0.00    -0.044 C 
ATOM     20  C   UNL     1      42.682  19.441  20.850  0.00  0.00    +0.030 C 
ATOM     21  C   UNL     1      42.713  20.229  18.483  0.00  0.00    +0.029 C 
ATOM     22  C   UNL     1      46.585  17.577  20.142  0.00  0.00    -0.189 C 
ATOM     23  C   UNL     1      47.276  16.877  21.241  0.00  0.00    +0.395 C 
ATOM     24  O   UNL     1      46.944  17.078  22.391  0.00  0.00    -0.445 OA
ATOM     25  C   UNL     1      48.403  15.903  20.938  0.00  0.00    +0.045 C 
ATOM     26  C   UNL     1      49.058  16.444  19.675  0.00  0.00    -0.045 C 
ATOM     27  C   UNL     1      49.492  17.898  19.876  0.00  0.00    +0.034 C 
ENDROOT
BRANCH   3   2
ATOM      1  C   UNL     1      52.308  15.093  20.352  0.00  0.00    +0.014 C 
ATOM      2  C   UNL     1      51.549  16.181  19.589  0.00  0.00    -0.009 C 
BRANCH   2  28
ATOM     28  C   UNL     1      52.378  16.634  18.386  0.00  0.00    +0.016 C 
BRANCH  28  29
ATOM     29  C   UNL     1      52.796  18.093  18.575  0.00  0.00    +0.044 C 
BRANCH  29  30
ATOM     30  C   UNL     1      52.122  18.948  17.534  0.00  0.00    -0.013 C 
ATOM     31  C   UNL     1      51.947  20.229  17.750  0.00  0.00    -0.156 C 
ATOM     35  C   UNL     1      52.317  20.825  19.083  0.00  0.00    +0.083 C 
BRANCH  31  32
ATOM     32  C   UNL     1      51.375  21.105  16.665  0.00  0.00    +0.222 C 
BRANCH  32  33
ATOM     33  O   UNL     1      52.417  21.487  15.764  0.00  0.00    -0.572 OA
ATOM     34  H   UNL     1      53.306  21.405  16.134  0.00  0.00    +0.382 HD
ENDBRANCH  32  33
ENDBRANCH  31  32
ENDBRANCH  29  30
ENDBRANCH  28  29
ENDBRANCH   2  28
ENDBRANCH   3   2
BRANCH  16  17
ATOM     17  O   UNL     1      43.310  22.200  20.475  0.00  0.00    -0.563 OA
ATOM     18  H   UNL     1      43.097  22.798  19.746  0.00  0.00    +0.375 HD
ENDBRANCH  16  17
TORSDOF 7
ENDMDL
MODEL 3
REMARK VINA RESULT:      -6.0      3.222      4.458
REMARK  Name = ZINC95486246
REMARK  14 active torsions:
REMARK  status: ('A' for Active; 'I' for Inactive)
REMARK    1  A    between atoms: C1_1  and  C2_2
REMARK    2  A    between atoms: C2_2  and  C3_4
REMARK    3  A    between atoms: C2_2  and  C9_11
REMARK    4  A    between atoms: C3_4  and  C4_5
REMARK    5  A    between atoms: C4_5  and  C5_6
REMARK    6  A    between atoms: C6_7  and  C7_8
REMARK    7  A    between atoms: C6_7  and  C8_9
REMARK    8  A    between atoms: C8_9  and  O1_10
REMARK    9  A    between atoms: C12_15  and  C30_37
REMARK   10  A    between atoms: C13_16  and  C29_36
REMARK   11  A    between atoms: C21_26  and  C28_35
REMARK   12  A    between atoms: C24_29  and  O3_34
REMARK   13  A    between atoms: C25_31  and  C26_32
REMARK   14  A    between atoms: C25_31  and  C27_33
REMARK                            x       y       z     vdW  Elec       q    Type
REMARK                         _______ _______ _______ _____ _____    ______ ____
ROOT
ATOM      3  C   UNL     1      51.934  16.653  18.723  0.00  0.00    +0.007 C 
ATOM      4  C   UNL     1      52.686  18.007  18.722  0.00  0.00    +0.017 C 
ATOM      5  C   UNL     1      51.602  19.111  18.855  0.00  0.00    +0.033 C 
ATOM      6  C   UNL     1      50.346  18.419  18.320  0.00  0.00    -0.044 C 
ATOM      7  C   UNL     1      50.418  18.321  16.795  0.00  0.00    +0.045 C 
ATOM      8  C   UNL     1      49.033  19.012  18.730  0.00  0.00    -0.010 C 
ATOM      9  C   UNL     1      48.968  20.495  18.977  0.00  0.00    +0.076 C 
ATOM     10  C   UNL     1      47.689  20.879  19.720  0.00  0.00    +0.021 C 
ATOM     11  C   UNL     1      46.515  20.203  19.008  0.00  0.00    +0.012 C 
ATOM     12  C   UNL     1      46.610  18.693  19.243  0.00  0.00    +0.005 C 
ATOM     13  C   UNL     1      45.541  17.975  18.417  0.00  0.00    +0.024 C 
ATOM     14  C   UNL     1      46.404  18.382  20.728  0.00  0.00    +0.026 C 
ATOM     15  C   UNL     1      45.046  18.913  21.188  0.00  0.00    -0.014 C 
ATOM     16  C   UNL     1      45.010  20.431  20.994  0.00  0.00    +0.169 C 
ATOM     19  C   UNL     1      45.189  20.748  19.522  0.00  0.00    -0.044 C 
ATOM     20  C   UNL     1      44.041  20.115  18.733  0.00  0.00    +0.030 C 
ATOM     21  C   UNL     1      45.157  22.265  19.330  0.00  0.00    +0.029 C 
ATOM     22  C   UNL     1      47.979  18.193  18.840  0.00  0.00    -0.189 C 
ATOM     23  C   UNL     1      48.098  16.745  18.590  0.00  0.00    +0.395 C 
ATOM     24  O   UNL     1      47.118  16.034  18.672  0.00  0.00    -0.445 OA
ATOM     25  C   UNL     1      49.444  16.139  18.230  0.00  0.00    +0.045 C 
ATOM     26  C   UNL     1      50.468  17.006  18.949  0.00  0.00    -0.045 C 
ATOM     27  C   UNL     1      50.163  17.066  20.448  0.00  0.00    +0.034 C 
ENDROOT
BRANCH   3   2
ATOM      1  C   UNL     1      52.875  14.408  19.288  0.00  0.00    +0.014 C 
ATOM      2  C   UNL     1      52.446  15.762  19.857  0.00  0.00    -0.009 C 
BRANCH   2  28
ATOM     28  C   UNL     1      53.641  16.435  20.534  0.00  0.00    +0.016 C 
BRANCH  28  29
ATOM     29  C   UNL     1      54.479  15.378  21.257  0.00  0.00    +0.044 C 
BRANCH  29  30
ATOM     30  C   UNL     1      55.877  15.900  21.463  0.00  0.00    -0.013 C 
ATOM     31  C   UNL     1      56.852  15.487  20.689  0.00  0.00    -0.156 C 
ATOM     35  C   UNL     1      56.596  14.408  19.669  0.00  0.00    +0.083 C 
BRANCH  31  32
ATOM     32  C   UNL     1      58.226  16.091  20.820  0.00  0.00    +0.222 C 
BRANCH  32  33
ATOM     33  O   UNL     1      58.365  17.163  19.886  0.00  0.00    -0.572 OA
ATOM     34  H   UNL     1      58.896  17.903  20.212  0.00  0.00    +0.382 HD
ENDBRANCH  32  33
ENDBRANCH  31  32
ENDBRANCH  29  30
ENDBRANCH  28  29
ENDBRANCH   2  28
ENDBRANCH   3   2
BRANCH  16  17
ATOM     17  O   UNL     1      43.755  20.942  21.450  0.00  0.00    -0.563 OA
ATOM     18  H   UNL     1      43.043  20.288  21.454  0.00  0.00    +0.375 HD
ENDBRANCH  16  17
TORSDOF 7
ENDMDL
MODEL 4
REMARK VINA RESULT:      -5.7      3.045      4.140
REMARK  Name = ZINC95486246
REMARK  14 active torsions:
REMARK  status: ('A' for Active; 'I' for Inactive)
REMARK    1  A    between atoms: C1_1  and  C2_2
REMARK    2  A    between atoms: C2_2  and  C3_4
REMARK    3  A    between atoms: C2_2  and  C9_11
REMARK    4  A    between atoms: C3_4  and  C4_5
REMARK    5  A    between atoms: C4_5  and  C5_6
REMARK    6  A    between atoms: C6_7  and  C7_8
REMARK    7  A    between atoms: C6_7  and  C8_9
REMARK    8  A    between atoms: C8_9  and  O1_10
REMARK    9  A    between atoms: C12_15  and  C30_37
REMARK   10  A    between atoms: C13_16  and  C29_36
REMARK   11  A    between atoms: C21_26  and  C28_35
REMARK   12  A    between atoms: C24_29  and  O3_34
REMARK   13  A    between atoms: C25_31  and  C26_32
REMARK   14  A    between atoms: C25_31  and  C27_33
REMARK                            x       y       z     vdW  Elec       q    Type
REMARK                         _______ _______ _______ _____ _____    ______ ____
ROOT
ATOM      3  C   UNL     1      49.077  14.323  17.984  0.00  0.00    +0.007 C 
ATOM      4  C   UNL     1      47.898  13.326  18.109  0.00  0.00    +0.017 C 
ATOM      5  C   UNL     1      46.712  14.123  18.719  0.00  0.00    +0.033 C 
ATOM      6  C   UNL     1      47.415  15.270  19.449  0.00  0.00    -0.044 C 
ATOM      7  C   UNL     1      48.057  14.749  20.737  0.00  0.00    +0.045 C 
ATOM      8  C   UNL     1      46.583  16.478  19.749  0.00  0.00    -0.010 C 
ATOM      9  C   UNL     1      45.111  16.285  19.995  0.00  0.00    +0.076 C 
ATOM     10  C   UNL     1      44.358  17.612  19.926  0.00  0.00    +0.021 C 
ATOM     11  C   UNL     1      45.117  18.625  20.786  0.00  0.00    +0.012 C 
ATOM     12  C   UNL     1      46.445  18.947  20.097  0.00  0.00    +0.005 C 
ATOM     13  C   UNL     1      47.296  19.837  21.006  0.00  0.00    +0.024 C 
ATOM     14  C   UNL     1      46.184  19.670  18.772  0.00  0.00    +0.026 C 
ATOM     15  C   UNL     1      45.386  20.950  19.026  0.00  0.00    -0.014 C 
ATOM     16  C   UNL     1      44.042  20.585  19.661  0.00  0.00    +0.169 C 
ATOM     19  C   UNL     1      44.291  19.889  20.985  0.00  0.00    -0.044 C 
ATOM     20  C   UNL     1      45.041  20.843  21.916  0.00  0.00    +0.030 C 
ATOM     21  C   UNL     1      42.947  19.520  21.616  0.00  0.00    +0.029 C 
ATOM     22  C   UNL     1      47.195  17.668  19.798  0.00  0.00    -0.189 C 
ATOM     23  C   UNL     1      48.641  17.803  19.544  0.00  0.00    +0.395 C 
ATOM     24  O   UNL     1      49.170  18.893  19.623  0.00  0.00    -0.445 OA
ATOM     25  C   UNL     1      49.471  16.583  19.185  0.00  0.00    +0.045 C 
ATOM     26  C   UNL     1      48.516  15.669  18.431  0.00  0.00    -0.045 C 
ATOM     27  C   UNL     1      47.895  16.404  17.241  0.00  0.00    +0.034 C 
ENDROOT
BRANCH   3   2
ATOM      1  C   UNL     1      51.080  14.503  16.501  0.00  0.00    +0.014 C 
ATOM      2  C   UNL     1      49.554  14.402  16.532  0.00  0.00    -0.009 C 
BRANCH   2  28
ATOM     28  C   UNL     1      49.109  13.147  15.780  0.00  0.00    +0.016 C 
BRANCH  28  29
ATOM     29  C   UNL     1      50.289  12.582  14.987  0.00  0.00    +0.044 C 
BRANCH  29  30
ATOM     30  C   UNL     1      50.016  12.722  13.512  0.00  0.00    -0.013 C 
ATOM     31  C   UNL     1      50.948  13.183  12.713  0.00  0.00    -0.156 C 
ATOM     35  C   UNL     1      52.251  13.677  13.284  0.00  0.00    +0.083 C 
BRANCH  31  32
ATOM     32  C   UNL     1      50.715  13.217  11.225  0.00  0.00    +0.222 C 
BRANCH  32  33
ATOM     33  O   UNL     1      51.734  14.002  10.601  0.00  0.00    -0.572 OA
ATOM     34  H   UNL     1      51.401  14.629   9.946  0.00  0.00    +0.382 HD
ENDBRANCH  32  33
ENDBRANCH  31  32
ENDBRANCH  29  30
ENDBRANCH  28  29
ENDBRANCH   2  28
ENDBRANCH   3   2
BRANCH  16  17
ATOM     17  O   UNL     1      43.275  21.772  19.874  0.00  0.00    -0.563 OA
ATOM     18  H   UNL     1      42.371  21.607  20.175  0.00  0.00    +0.375 HD
ENDBRANCH  16  17
TORSDOF 7
ENDMDL
MODEL 5
REMARK VINA RESULT:      -5.6      2.441      3.533
REMARK  Name = ZINC95486246
REMARK  14 active torsions:
REMARK  status: ('A' for Active; 'I' for Inactive)
REMARK    1  A    between atoms: C1_1  and  C2_2
REMARK    2  A    between atoms: C2_2  and  C3_4
REMARK    3  A    between atoms: C2_2  and  C9_11
REMARK    4  A    between atoms: C3_4  and  C4_5
REMARK    5  A    between atoms: C4_5  and  C5_6
REMARK    6  A    between atoms: C6_7  and  C7_8
REMARK    7  A    between atoms: C6_7  and  C8_9
REMARK    8  A    between atoms: C8_9  and  O1_10
REMARK    9  A    between atoms: C12_15  and  C30_37
REMARK   10  A    between atoms: C13_16  and  C29_36
REMARK   11  A    between atoms: C21_26  and  C28_35
REMARK   12  A    between atoms: C24_29  and  O3_34
REMARK   13  A    between atoms: C25_31  and  C26_32
REMARK   14  A    between atoms: C25_31  and  C27_33
REMARK                            x       y       z     vdW  Elec       q    Type
REMARK                         _______ _______ _______ _____ _____    ______ ____
ROOT
ATOM      3  C   UNL     1      48.609  15.529  18.491  0.00  0.00    +0.007 C 
ATOM      4  C   UNL     1      49.685  16.424  17.827  0.00  0.00    +0.017 C 
ATOM      5  C   UNL     1      49.167  17.885  17.935  0.00  0.00    +0.033 C 
ATOM      6  C   UNL     1      47.653  17.699  18.065  0.00  0.00    -0.044 C 
ATOM      7  C   UNL     1      47.058  17.321  16.707  0.00  0.00    +0.045 C 
ATOM      8  C   UNL     1      46.889  18.845  18.654  0.00  0.00    -0.010 C 
ATOM      9  C   UNL     1      47.410  20.239  18.426  0.00  0.00    +0.076 C 
ATOM     10  C   UNL     1      46.745  21.241  19.369  0.00  0.00    +0.021 C 
ATOM     11  C   UNL     1      45.234  21.005  19.310  0.00  0.00    +0.012 C 
ATOM     12  C   UNL     1      44.929  19.658  19.969  0.00  0.00    +0.005 C 
ATOM     13  C   UNL     1      43.447  19.321  19.789  0.00  0.00    +0.024 C 
ATOM     14  C   UNL     1      45.262  19.719  21.462  0.00  0.00    +0.026 C 
ATOM     15  C   UNL     1      44.461  20.837  22.129  0.00  0.00    -0.014 C 
ATOM     16  C   UNL     1      44.836  22.175  21.486  0.00  0.00    +0.169 C 
ATOM     19  C   UNL     1      44.487  22.132  20.011  0.00  0.00    -0.044 C 
ATOM     20  C   UNL     1      42.981  21.910  19.862  0.00  0.00    +0.030 C 
ATOM     21  C   UNL     1      44.867  23.467  19.369  0.00  0.00    +0.029 C 
ATOM     22  C   UNL     1      45.772  18.572  19.339  0.00  0.00    -0.189 C 
ATOM     23  C   UNL     1      45.308  17.187  19.537  0.00  0.00    +0.395 C 
ATOM     24  O   UNL     1      44.277  16.975  20.141  0.00  0.00    -0.445 OA
ATOM     25  C   UNL     1      46.116  16.024  18.988  0.00  0.00    +0.045 C 
ATOM     26  C   UNL     1      47.563  16.494  19.039  0.00  0.00    -0.045 C 
ATOM     27  C   UNL     1      47.936  16.930  20.457  0.00  0.00    +0.034 C 
ENDROOT
BRANCH   3   2
ATOM      1  C   UNL     1      48.498  13.373  19.749  0.00  0.00    +0.014 C 
ATOM      2  C   UNL     1      49.225  14.714  19.629  0.00  0.00    -0.009 C 
BRANCH   2  28
ATOM     28  C   UNL     1      50.706  14.467  19.336  0.00  0.00    +0.016 C 
BRANCH  28  29
ATOM     29  C   UNL     1      50.869  13.119  18.630  0.00  0.00    +0.044 C 
BRANCH  29  30
ATOM     30  C   UNL     1      51.586  13.322  17.320  0.00  0.00    -0.013 C 
ATOM     31  C   UNL     1      50.942  13.167  16.189  0.00  0.00    -0.156 C 
ATOM     35  C   UNL     1      49.517  12.677  16.196  0.00  0.00    +0.083 C 
BRANCH  31  32
ATOM     32  C   UNL     1      51.625  13.479  14.883  0.00  0.00    +0.222 C 
BRANCH  32  33
ATOM     33  O   UNL     1      52.396  12.349  14.467  0.00  0.00    -0.572 OA
ATOM     34  H   UNL     1      52.264  12.103  13.542  0.00  0.00    +0.382 HD
ENDBRANCH  32  33
ENDBRANCH  31  32
ENDBRANCH  29  30
ENDBRANCH  28  29
ENDBRANCH   2  28
ENDBRANCH   3   2
BRANCH  16  17
ATOM     17  O   UNL     1      44.115  23.232  22.124  0.00  0.00    -0.563 OA
ATOM     18  H   UNL     1      43.204  23.003  22.354  0.00  0.00    +0.375 HD
ENDBRANCH  16  17
TORSDOF 7
ENDMDL
MODEL 6
REMARK VINA RESULT:      -5.6      3.451      8.687
REMARK  Name = ZINC95486246
REMARK  14 active torsions:
REMARK  status: ('A' for Active; 'I' for Inactive)
REMARK    1  A    between atoms: C1_1  and  C2_2
REMARK    2  A    between atoms: C2_2  and  C3_4
REMARK    3  A    between atoms: C2_2  and  C9_11
REMARK    4  A    between atoms: C3_4  and  C4_5
REMARK    5  A    between atoms: C4_5  and  C5_6
REMARK    6  A    between atoms: C6_7  and  C7_8
REMARK    7  A    between atoms: C6_7  and  C8_9
REMARK    8  A    between atoms: C8_9  and  O1_10
REMARK    9  A    between atoms: C12_15  and  C30_37
REMARK   10  A    between atoms: C13_16  and  C29_36
REMARK   11  A    between atoms: C21_26  and  C28_35
REMARK   12  A    between atoms: C24_29  and  O3_34
REMARK   13  A    between atoms: C25_31  and  C26_32
REMARK   14  A    between atoms: C25_31  and  C27_33
REMARK                            x       y       z     vdW  Elec       q    Type
REMARK                         _______ _______ _______ _____ _____    ______ ____
ROOT
ATOM      3  C   UNL     1      45.824  17.326  20.678  0.00  0.00    +0.007 C 
ATOM      4  C   UNL     1      47.072  18.243  20.721  0.00  0.00    +0.017 C 
ATOM      5  C   UNL     1      48.161  17.542  19.862  0.00  0.00    +0.033 C 
ATOM      6  C   UNL     1      47.730  16.074  19.902  0.00  0.00    -0.044 C 
ATOM      7  C   UNL     1      48.063  15.472  21.268  0.00  0.00    +0.045 C 
ATOM      8  C   UNL     1      48.266  15.194  18.815  0.00  0.00    -0.010 C 
ATOM      9  C   UNL     1      49.620  15.515  18.241  0.00  0.00    +0.076 C 
ATOM     10  C   UNL     1      49.858  14.768  16.930  0.00  0.00    +0.021 C 
ATOM     11  C   UNL     1      49.488  13.300  17.155  0.00  0.00    +0.012 C 
ATOM     12  C   UNL     1      47.971  13.205  17.334  0.00  0.00    +0.005 C 
ATOM     13  C   UNL     1      47.586  11.774  17.715  0.00  0.00    +0.024 C 
ATOM     14  C   UNL     1      47.266  13.596  16.031  0.00  0.00    +0.026 C 
ATOM     15  C   UNL     1      47.731  12.685  14.894  0.00  0.00    -0.014 C 
ATOM     16  C   UNL     1      49.242  12.851  14.706  0.00  0.00    +0.169 C 
ATOM     19  C   UNL     1      49.950  12.443  15.983  0.00  0.00    -0.044 C 
ATOM     20  C   UNL     1      49.641  10.974  16.277  0.00  0.00    +0.030 C 
ATOM     21  C   UNL     1      51.458  12.614  15.795  0.00  0.00    +0.029 C 
ATOM     22  C   UNL     1      47.519  14.155  18.420  0.00  0.00    -0.189 C 
ATOM     23  C   UNL     1      46.196  13.887  19.013  0.00  0.00    +0.395 C 
ATOM     24  O   UNL     1      45.555  12.921  18.651  0.00  0.00    -0.445 OA
ATOM     25  C   UNL     1      45.631  14.815  20.075  0.00  0.00    +0.045 C 
ATOM     26  C   UNL     1      46.192  16.188  19.732  0.00  0.00    -0.045 C 
ATOM     27  C   UNL     1      45.845  16.565  18.290  0.00  0.00    +0.034 C 
ENDROOT
BRANCH   3   2
ATOM      1  C   UNL     1      43.408  17.853  21.042  0.00  0.00    +0.014 C 
ATOM      2  C   UNL     1      44.618  18.096  20.136  0.00  0.00    -0.009 C 
BRANCH   2  28
ATOM     28  C   UNL     1      44.940  19.591  20.105  0.00  0.00    +0.016 C 
BRANCH  28  29
ATOM     29  C   UNL     1      44.435  20.194  18.792  0.00  0.00    +0.044 C 
BRANCH  29  30
ATOM     30  C   UNL     1      42.929  20.194  18.786  0.00  0.00    -0.013 C 
ATOM     31  C   UNL     1      42.272  21.293  19.066  0.00  0.00    -0.156 C 
ATOM     35  C   UNL     1      43.020  22.526  19.503  0.00  0.00    +0.083 C 
BRANCH  31  32
ATOM     32  C   UNL     1      40.770  21.324  18.950  0.00  0.00    +0.222 C 
BRANCH  32  33
ATOM     33  O   UNL     1      40.383  22.362  18.047  0.00  0.00    -0.572 OA
ATOM     34  H   UNL     1      40.318  23.236  18.457  0.00  0.00    +0.382 HD
ENDBRANCH  32  33
ENDBRANCH  31  32
ENDBRANCH  29  30
ENDBRANCH  28  29
ENDBRANCH   2  28
ENDBRANCH   3   2
BRANCH  16  17
ATOM     17  O   UNL     1      49.682  12.026  13.624  0.00  0.00    -0.563 OA
ATOM     18  H   UNL     1      50.145  12.509  12.926  0.00  0.00    +0.375 HD
ENDBRANCH  16  17
TORSDOF 7
ENDMDL
MODEL 7
REMARK VINA RESULT:      -5.5      3.568      6.112
REMARK  Name = ZINC95486246
REMARK  14 active torsions:
REMARK  status: ('A' for Active; 'I' for Inactive)
REMARK    1  A    between atoms: C1_1  and  C2_2
REMARK    2  A    between atoms: C2_2  and  C3_4
REMARK    3  A    between atoms: C2_2  and  C9_11
REMARK    4  A    between atoms: C3_4  and  C4_5
REMARK    5  A    between atoms: C4_5  and  C5_6
REMARK    6  A    between atoms: C6_7  and  C7_8
REMARK    7  A    between atoms: C6_7  and  C8_9
REMARK    8  A    between atoms: C8_9  and  O1_10
REMARK    9  A    between atoms: C12_15  and  C30_37
REMARK   10  A    between atoms: C13_16  and  C29_36
REMARK   11  A    between atoms: C21_26  and  C28_35
REMARK   12  A    between atoms: C24_29  and  O3_34
REMARK   13  A    between atoms: C25_31  and  C26_32
REMARK   14  A    between atoms: C25_31  and  C27_33
REMARK                            x       y       z     vdW  Elec       q    Type
REMARK                         _______ _______ _______ _____ _____    ______ ____
ROOT
ATOM      3  C   UNL     1      47.366  12.687  18.537  0.00  0.00    +0.007 C 
ATOM      4  C   UNL     1      46.018  13.384  18.227  0.00  0.00    +0.017 C 
ATOM      5  C   UNL     1      46.307  14.911  18.214  0.00  0.00    +0.033 C 
ATOM      6  C   UNL     1      47.562  15.025  19.082  0.00  0.00    -0.044 C 
ATOM      7  C   UNL     1      47.191  14.852  20.557  0.00  0.00    +0.045 C 
ATOM      8  C   UNL     1      48.382  16.266  18.907  0.00  0.00    -0.010 C 
ATOM      9  C   UNL     1      47.676  17.538  18.521  0.00  0.00    +0.076 C 
ATOM     10  C   UNL     1      48.664  18.597  18.038  0.00  0.00    +0.021 C 
ATOM     11  C   UNL     1      49.803  18.673  19.058  0.00  0.00    +0.012 C 
ATOM     12  C   UNL     1      50.616  17.379  18.973  0.00  0.00    +0.005 C 
ATOM     13  C   UNL     1      51.667  17.357  20.085  0.00  0.00    +0.024 C 
ATOM     14  C   UNL     1      51.311  17.287  17.611  0.00  0.00    +0.026 C 
ATOM     15  C   UNL     1      52.213  18.504  17.404  0.00  0.00    -0.014 C 
ATOM     16  C   UNL     1      51.358  19.773  17.436  0.00  0.00    +0.169 C 
ATOM     19  C   UNL     1      50.685  19.885  18.790  0.00  0.00    -0.044 C 
ATOM     20  C   UNL     1      51.760  19.979  19.874  0.00  0.00    +0.030 C 
ATOM     21  C   UNL     1      49.827  21.152  18.818  0.00  0.00    +0.029 C 
ATOM     22  C   UNL     1      49.702  16.184  19.120  0.00  0.00    -0.189 C 
ATOM     23  C   UNL     1      50.345  14.911  19.493  0.00  0.00    +0.395 C 
ATOM     24  O   UNL     1      51.540  14.876  19.704  0.00  0.00    -0.445 OA
ATOM     25  C   UNL     1      49.518  13.643  19.614  0.00  0.00    +0.045 C 
ATOM     26  C   UNL     1      48.396  13.810  18.599  0.00  0.00    -0.045 C 
ATOM     27  C   UNL     1      48.968  14.080  17.206  0.00  0.00    +0.034 C 
ENDROOT
BRANCH   3   2
ATOM      1  C   UNL     1      48.078  10.345  18.035  0.00  0.00    +0.014 C 
ATOM      2  C   UNL     1      47.722  11.701  17.423  0.00  0.00    -0.009 C 
BRANCH   2  28
ATOM     28  C   UNL     1      46.525  11.539  16.483  0.00  0.00    +0.016 C 
BRANCH  28  29
ATOM     29  C   UNL     1      47.015  11.081  15.108  0.00  0.00    +0.044 C 
BRANCH  29  30
ATOM     30  C   UNL     1      47.899  12.144  14.510  0.00  0.00    -0.013 C 
ATOM     31  C   UNL     1      49.154  11.877  14.240  0.00  0.00    -0.156 C 
ATOM     35  C   UNL     1      49.741  10.545  14.631  0.00  0.00    +0.083 C 
BRANCH  31  32
ATOM     32  C   UNL     1      50.009  12.901  13.540  0.00  0.00    +0.222 C 
BRANCH  32  33
ATOM     33  O   UNL     1      50.336  12.433  12.230  0.00  0.00    -0.572 OA
ATOM     34  H   UNL     1      50.813  13.078  11.690  0.00  0.00    +0.382 HD
ENDBRANCH  32  33
ENDBRANCH  31  32
ENDBRANCH  29  30
ENDBRANCH  28  29
ENDBRANCH   2  28
ENDBRANCH   3   2
BRANCH  16  17
ATOM     17  O   UNL     1      52.188  20.915  17.211  0.00  0.00    -0.563 OA
ATOM     18  H   UNL     1      52.101  21.297  16.327  0.00  0.00    +0.375 HD
ENDBRANCH  16  17
TORSDOF 7
ENDMDL
MODEL 8
REMARK VINA RESULT:      -5.4      3.186      7.463
REMARK  Name = ZINC95486246
REMARK  14 active torsions:
REMARK  status: ('A' for Active; 'I' for Inactive)
REMARK    1  A    between atoms: C1_1  and  C2_2
REMARK    2  A    between atoms: C2_2  and  C3_4
REMARK    3  A    between atoms: C2_2  and  C9_11
REMARK    4  A    between atoms: C3_4  and  C4_5
REMARK    5  A    between atoms: C4_5  and  C5_6
REMARK    6  A    between atoms: C6_7  and  C7_8
REMARK    7  A    between atoms: C6_7  and  C8_9
REMARK    8  A    between atoms: C8_9  and  O1_10
REMARK    9  A    between atoms: C12_15  and  C30_37
REMARK   10  A    between atoms: C13_16  and  C29_36
REMARK   11  A    between atoms: C21_26  and  C28_35
REMARK   12  A    between atoms: C24_29  and  O3_34
REMARK   13  A    between atoms: C25_31  and  C26_32
REMARK   14  A    between atoms: C25_31  and  C27_33
REMARK                            x       y       z     vdW  Elec       q    Type
REMARK                         _______ _______ _______ _____ _____    ______ ____
ROOT
ATOM      3  C   UNL     1      46.616  18.789  19.815  0.00  0.00    +0.007 C 
ATOM      4  C   UNL     1      46.977  18.469  21.287  0.00  0.00    +0.017 C 
ATOM      5  C   UNL     1      47.433  16.984  21.315  0.00  0.00    +0.033 C 
ATOM      6  C   UNL     1      46.751  16.398  20.077  0.00  0.00    -0.044 C 
ATOM      7  C   UNL     1      45.257  16.207  20.348  0.00  0.00    +0.045 C 
ATOM      8  C   UNL     1      47.334  15.130  19.533  0.00  0.00    -0.010 C 
ATOM      9  C   UNL     1      47.985  14.175  20.497  0.00  0.00    +0.076 C 
ATOM     10  C   UNL     1      48.830  13.135  19.763  0.00  0.00    +0.021 C 
ATOM     11  C   UNL     1      47.981  12.562  18.625  0.00  0.00    +0.012 C 
ATOM     12  C   UNL     1      47.786  13.654  17.570  0.00  0.00    +0.005 C 
ATOM     13  C   UNL     1      46.814  13.163  16.495  0.00  0.00    +0.024 C 
ATOM     14  C   UNL     1      49.130  14.002  16.924  0.00  0.00    +0.026 C 
ATOM     15  C   UNL     1      49.746  12.752  16.296  0.00  0.00    -0.014 C 
ATOM     16  C   UNL     1      49.981  11.706  17.389  0.00  0.00    +0.169 C 
ATOM     19  C   UNL     1      48.652  11.337  18.018  0.00  0.00    -0.044 C 
ATOM     20  C   UNL     1      47.741  10.741  16.944  0.00  0.00    +0.030 C 
ATOM     21  C   UNL     1      48.890  10.296  19.114  0.00  0.00    +0.029 C 
ATOM     22  C   UNL     1      47.233  14.904  18.217  0.00  0.00    -0.189 C 
ATOM     23  C   UNL     1      46.589  15.876  17.315  0.00  0.00    +0.395 C 
ATOM     24  O   UNL     1      46.489  15.628  16.130  0.00  0.00    -0.445 OA
ATOM     25  C   UNL     1      46.049  17.186  17.862  0.00  0.00    +0.045 C 
ATOM     26  C   UNL     1      46.960  17.526  19.032  0.00  0.00    -0.045 C 
ATOM     27  C   UNL     1      48.422  17.565  18.581  0.00  0.00    +0.034 C 
ENDROOT
BRANCH   3   2
ATOM      1  C   UNL     1      46.516  21.050  18.756  0.00  0.00    +0.014 C 
ATOM      2  C   UNL     1      47.448  19.969  19.309  0.00  0.00    -0.009 C 
BRANCH   2  28
ATOM     28  C   UNL     1      48.270  20.545  20.463  0.00  0.00    +0.016 C 
BRANCH  28  29
ATOM     29  C   UNL     1      49.564  21.152  19.914  0.00  0.00    +0.044 C 
BRANCH  29  30
ATOM     30  C   UNL     1      50.561  20.053  19.653  0.00  0.00    -0.013 C 
ATOM     31  C   UNL     1      51.300  20.082  18.570  0.00  0.00    -0.156 C 
ATOM     35  C   UNL     1      51.073  21.152  17.533  0.00  0.00    +0.083 C 
BRANCH  31  32
ATOM     32  C   UNL     1      52.375  19.047  18.363  0.00  0.00    +0.222 C 
BRANCH  32  33
ATOM     33  O   UNL     1      52.589  18.856  16.963  0.00  0.00    -0.572 OA
ATOM     34  H   UNL     1      51.785  18.646  16.468  0.00  0.00    +0.382 HD
ENDBRANCH  32  33
ENDBRANCH  31  32
ENDBRANCH  29  30
ENDBRANCH  28  29
ENDBRANCH   2  28
ENDBRANCH   3   2
BRANCH  16  17
ATOM     17  O   UNL     1      50.586  10.544  16.817  0.00  0.00    -0.563 OA
ATOM     18  H   UNL     1      50.342   9.718  17.257  0.00  0.00    +0.375 HD
ENDBRANCH  16  17
TORSDOF 7
ENDMDL
MODEL 9
REMARK VINA RESULT:      -5.3      3.074      4.784
REMARK  Name = ZINC95486246
REMARK  14 active torsions:
REMARK  status: ('A' for Active; 'I' for Inactive)
REMARK    1  A    between atoms: C1_1  and  C2_2
REMARK    2  A    between atoms: C2_2  and  C3_4
REMARK    3  A    between atoms: C2_2  and  C9_11
REMARK    4  A    between atoms: C3_4  and  C4_5
REMARK    5  A    between atoms: C4_5  and  C5_6
REMARK    6  A    between atoms: C6_7  and  C7_8
REMARK    7  A    between atoms: C6_7  and  C8_9
REMARK    8  A    between atoms: C8_9  and  O1_10
REMARK    9  A    between atoms: C12_15  and  C30_37
REMARK   10  A    between atoms: C13_16  and  C29_36
REMARK   11  A    between atoms: C21_26  and  C28_35
REMARK   12  A    between atoms: C24_29  and  O3_34
REMARK   13  A    between atoms: C25_31  and  C26_32
REMARK   14  A    between atoms: C25_31  and  C27_33
REMARK                            x       y       z     vdW  Elec       q    Type
REMARK                         _______ _______ _______ _____ _____    ______ ____
ROOT
ATOM      3  C   UNL     1      49.993  15.157  18.410  0.00  0.00    +0.007 C 
ATOM      4  C   UNL     1      49.243  13.892  18.898  0.00  0.00    +0.017 C 
ATOM      5  C   UNL     1      47.917  14.389  19.539  0.00  0.00    +0.033 C 
ATOM      6  C   UNL     1      48.250  15.830  19.930  0.00  0.00    -0.044 C 
ATOM      7  C   UNL     1      49.146  15.839  21.170  0.00  0.00    +0.045 C 
ATOM      8  C   UNL     1      47.085  16.749  20.139  0.00  0.00    -0.010 C 
ATOM      9  C   UNL     1      45.797  16.160  20.648  0.00  0.00    +0.076 C 
ATOM     10  C   UNL     1      44.632  17.132  20.466  0.00  0.00    +0.021 C 
ATOM     11  C   UNL     1      45.075  18.497  20.998  0.00  0.00    +0.012 C 
ATOM     12  C   UNL     1      46.144  19.060  20.058  0.00  0.00    +0.005 C 
ATOM     13  C   UNL     1      46.718  20.351  20.646  0.00  0.00    +0.024 C 
ATOM     14  C   UNL     1      45.530  19.351  18.685  0.00  0.00    +0.026 C 
ATOM     15  C   UNL     1      44.370  20.336  18.832  0.00  0.00    -0.014 C 
ATOM     16  C   UNL     1      43.296  19.716  19.729  0.00  0.00    +0.169 C 
ATOM     19  C   UNL     1      43.888  19.446  21.098  0.00  0.00    -0.044 C 
ATOM     20  C   UNL     1      44.348  20.770  21.712  0.00  0.00    +0.030 C 
ATOM     21  C   UNL     1      42.815  18.821  21.992  0.00  0.00    +0.029 C 
ATOM     22  C   UNL     1      47.255  18.051  19.877  0.00  0.00    -0.189 C 
ATOM     23  C   UNL     1      48.538  18.576  19.374  0.00  0.00    +0.395 C 
ATOM     24  O   UNL     1      48.667  19.766  19.171  0.00  0.00    -0.445 OA
ATOM     25  C   UNL     1      49.699  17.633  19.110  0.00  0.00    +0.045 C 
ATOM     26  C   UNL     1      49.049  16.321  18.694  0.00  0.00    -0.045 C 
ATOM     27  C   UNL     1      48.108  16.539  17.507  0.00  0.00    +0.034 C 
ENDROOT
BRANCH   3   2
ATOM      1  C   UNL     1      51.551  15.842  16.580  0.00  0.00    +0.014 C 
ATOM      2  C   UNL     1      50.279  15.059  16.910  0.00  0.00    -0.009 C 
BRANCH   2  28
ATOM     28  C   UNL     1      50.467  13.592  16.521  0.00  0.00    +0.016 C 
BRANCH  28  29
ATOM     29  C   UNL     1      49.702  13.304  15.228  0.00  0.00    +0.044 C 
BRANCH  29  30
ATOM     30  C   UNL     1      48.827  12.093  15.420  0.00  0.00    -0.013 C 
ATOM     31  C   UNL     1      47.555  12.240  15.699  0.00  0.00    -0.156 C 
ATOM     35  C   UNL     1      46.992  13.617  15.939  0.00  0.00    +0.083 C 
BRANCH  31  32
ATOM     32  C   UNL     1      46.656  11.033  15.780  0.00  0.00    +0.222 C 
BRANCH  32  33
ATOM     33  O   UNL     1      45.919  10.906  14.563  0.00  0.00    -0.572 OA
ATOM     34  H   UNL     1      45.197  11.543  14.472  0.00  0.00    +0.382 HD
ENDBRANCH  32  33
ENDBRANCH  31  32
ENDBRANCH  29  30
ENDBRANCH  28  29
ENDBRANCH   2  28
ENDBRANCH   3   2
BRANCH  16  17
ATOM     17  O   UNL     1      42.192  20.616  19.847  0.00  0.00    -0.563 OA
ATOM     18  H   UNL     1      41.355  20.185  20.064  0.00  0.00    +0.375 HD
ENDBRANCH  16  17
TORSDOF 7
ENDMDL
