MODEL 1
REMARK VINA RESULT:      -6.2      0.000      0.000
REMARK  Name = ZINC05765089
REMARK  3 active torsions:
REMARK  status: ('A' for Active; 'I' for Inactive)
REMARK    1  A    between atoms: C1_1  and  C2_2
REMARK    2  A    between atoms: C9_11  and  O5_19
REMARK    3  A    between atoms: C11_13  and  O4_18
REMARK                            x       y       z     vdW  Elec       q    Type
REMARK                         _______ _______ _______ _____ _____    ______ ____
ROOT
ATOM      1  C   UNL     1      46.957  21.271  21.078  0.00  0.00    +0.090 C 
ATOM      2  C   UNL     1      46.154  20.002  20.948  0.00  0.00    +0.059 A 
ATOM      3  C   UNL     1      46.686  18.819  21.348  0.00  0.00    -0.214 A 
ATOM      4  C   UNL     1      45.941  17.629  21.231  0.00  0.00    +0.402 A 
ATOM      5  C   UNL     1      44.646  17.656  20.700  0.00  0.00    -0.232 A 
ATOM      6  C   UNL     1      44.097  18.855  20.290  0.00  0.00    +0.208 A 
ATOM      7  O   UNL     1      42.848  18.886  19.778  0.00  0.00    -0.231 OA
ATOM      8  C   UNL     1      42.279  20.038  19.367  0.00  0.00    +0.197 A 
ATOM      9  C   UNL     1      40.994  20.031  18.847  0.00  0.00    -0.054 A 
ATOM     10  C   UNL     1      40.406  21.215  18.424  0.00  0.00    +0.180 A 
ATOM     13  C   UNL     1      41.094  22.422  18.515  0.00  0.00    -0.085 A 
ATOM     14  C   UNL     1      42.374  22.453  19.030  0.00  0.00    +0.219 A 
ATOM     17  C   UNL     1      42.981  21.257  19.462  0.00  0.00    -0.228 A 
ATOM     18  C   UNL     1      44.292  21.268  19.993  0.00  0.00    +0.373 A 
ATOM     19  O   UNL     1      44.987  22.418  20.096  0.00  0.00    -0.570 OA
ATOM     20  O   UNL     1      46.429  16.565  21.595  0.00  0.00    -0.599 OA
ATOM     21  C   UNL     1      44.851  20.044  20.417  0.00  0.00    -0.349 A 
ENDROOT
BRANCH  10  11
ATOM     11  O   UNL     1      39.149  21.195  17.917  0.00  0.00    -0.492 OA
ATOM     12  H   UNL     1      38.786  22.072  17.727  0.00  0.00    +0.396 HD
ENDBRANCH  10  11
BRANCH  14  15
ATOM     15  O   UNL     1      43.045  23.629  19.118  0.00  0.00    -0.467 OA
ATOM     16  H   UNL     1      43.991  23.529  19.289  0.00  0.00    +0.396 HD
ENDBRANCH  14  15
TORSDOF 2
ENDMDL
MODEL 2
REMARK VINA RESULT:      -6.0      2.146      3.099
REMARK  Name = ZINC05765089
REMARK  3 active torsions:
REMARK  status: ('A' for Active; 'I' for Inactive)
REMARK    1  A    between atoms: C1_1  and  C2_2
REMARK    2  A    between atoms: C9_11  and  O5_19
REMARK    3  A    between atoms: C11_13  and  O4_18
REMARK                            x       y       z     vdW  Elec       q    Type
REMARK                         _______ _______ _______ _____ _____    ______ ____
ROOT
ATOM      1  C   UNL     1      45.186  16.637  21.797  0.00  0.00    +0.090 C 
ATOM      2  C   UNL     1      45.493  17.461  20.573  0.00  0.00    +0.059 A 
ATOM      3  C   UNL     1      46.711  17.368  19.982  0.00  0.00    -0.214 A 
ATOM      4  C   UNL     1      47.005  18.136  18.837  0.00  0.00    +0.402 A 
ATOM      5  C   UNL     1      46.044  19.000  18.301  0.00  0.00    -0.232 A 
ATOM      6  C   UNL     1      44.802  19.101  18.896  0.00  0.00    +0.208 A 
ATOM      7  O   UNL     1      43.872  19.933  18.382  0.00  0.00    -0.231 OA
ATOM      8  C   UNL     1      42.648  20.058  18.937  0.00  0.00    +0.197 A 
ATOM      9  C   UNL     1      41.718  20.922  18.380  0.00  0.00    -0.054 A 
ATOM     10  C   UNL     1      40.459  21.053  18.949  0.00  0.00    +0.180 A 
ATOM     13  C   UNL     1      40.111  20.320  20.081  0.00  0.00    -0.085 A 
ATOM     14  C   UNL     1      41.021  19.453  20.652  0.00  0.00    +0.219 A 
ATOM     17  C   UNL     1      42.303  19.314  20.083  0.00  0.00    -0.228 A 
ATOM     18  C   UNL     1      43.248  18.430  20.653  0.00  0.00    +0.373 A 
ATOM     19  O   UNL     1      42.947  17.706  21.749  0.00  0.00    -0.570 OA
ATOM     20  O   UNL     1      48.107  18.046  18.309  0.00  0.00    -0.599 OA
ATOM     21  C   UNL     1      44.515  18.323  20.041  0.00  0.00    -0.349 A 
ENDROOT
BRANCH  10  11
ATOM     11  O   UNL     1      39.558  21.902  18.396  0.00  0.00    -0.492 OA
ATOM     12  H   UNL     1      39.388  22.694  18.923  0.00  0.00    +0.396 HD
ENDBRANCH  10  11
BRANCH  14  15
ATOM     15  O   UNL     1      40.683  18.741  21.755  0.00  0.00    -0.467 OA
ATOM     16  H   UNL     1      40.731  19.246  22.579  0.00  0.00    +0.396 HD
ENDBRANCH  14  15
TORSDOF 2
ENDMDL
MODEL 3
REMARK VINA RESULT:      -5.6      2.924      6.071
REMARK  Name = ZINC05765089
REMARK  3 active torsions:
REMARK  status: ('A' for Active; 'I' for Inactive)
REMARK    1  A    between atoms: C1_1  and  C2_2
REMARK    2  A    between atoms: C9_11  and  O5_19
REMARK    3  A    between atoms: C11_13  and  O4_18
REMARK                            x       y       z     vdW  Elec       q    Type
REMARK                         _______ _______ _______ _____ _____    ______ ____
ROOT
ATOM      1  C   UNL     1      43.566  19.172  21.992  0.00  0.00    +0.090 C 
ATOM      2  C   UNL     1      44.274  19.831  20.836  0.00  0.00    +0.059 A 
ATOM      3  C   UNL     1      44.289  21.184  20.733  0.00  0.00    -0.214 A 
ATOM      4  C   UNL     1      44.950  21.807  19.655  0.00  0.00    +0.402 A 
ATOM      5  C   UNL     1      45.596  21.035  18.682  0.00  0.00    -0.232 A 
ATOM      6  C   UNL     1      45.585  19.658  18.779  0.00  0.00    +0.208 A 
ATOM      7  O   UNL     1      46.207  18.910  17.843  0.00  0.00    -0.231 OA
ATOM      8  C   UNL     1      46.218  17.562  17.905  0.00  0.00    +0.197 A 
ATOM      9  C   UNL     1      46.868  16.827  16.926  0.00  0.00    -0.054 A 
ATOM     10  C   UNL     1      46.881  15.441  16.987  0.00  0.00    +0.180 A 
ATOM     13  C   UNL     1      46.245  14.770  18.028  0.00  0.00    -0.085 A 
ATOM     14  C   UNL     1      45.592  15.481  19.015  0.00  0.00    +0.219 A 
ATOM     17  C   UNL     1      45.572  16.889  18.962  0.00  0.00    -0.228 A 
ATOM     18  C   UNL     1      44.909  17.635  19.963  0.00  0.00    +0.373 A 
ATOM     19  O   UNL     1      44.282  17.019  20.985  0.00  0.00    -0.570 OA
ATOM     20  O   UNL     1      44.958  23.029  19.569  0.00  0.00    -0.599 OA
ATOM     21  C   UNL     1      44.924  19.043  19.867  0.00  0.00    -0.349 A 
ENDROOT
BRANCH  10  11
ATOM     11  O   UNL     1      47.519  14.732  16.023  0.00  0.00    -0.492 OA
ATOM     12  H   UNL     1      47.170  14.875  15.133  0.00  0.00    +0.396 HD
ENDBRANCH  10  11
BRANCH  14  15
ATOM     15  O   UNL     1      44.971  14.827  20.028  0.00  0.00    -0.467 OA
ATOM     16  H   UNL     1      45.057  13.865  19.986  0.00  0.00    +0.396 HD
ENDBRANCH  14  15
TORSDOF 2
ENDMDL
MODEL 4
REMARK VINA RESULT:      -5.4      1.310      5.410
REMARK  Name = ZINC05765089
REMARK  3 active torsions:
REMARK  status: ('A' for Active; 'I' for Inactive)
REMARK    1  A    between atoms: C1_1  and  C2_2
REMARK    2  A    between atoms: C9_11  and  O5_19
REMARK    3  A    between atoms: C11_13  and  O4_18
REMARK                            x       y       z     vdW  Elec       q    Type
REMARK                         _______ _______ _______ _____ _____    ______ ____
ROOT
ATOM      1  C   UNL     1      43.951  23.185  19.516  0.00  0.00    +0.090 C 
ATOM      2  C   UNL     1      42.944  22.067  19.431  0.00  0.00    +0.059 A 
ATOM      3  C   UNL     1      41.734  22.286  18.858  0.00  0.00    -0.214 A 
ATOM      4  C   UNL     1      40.788  21.245  18.774  0.00  0.00    +0.402 A 
ATOM      5  C   UNL     1      41.088  19.976  19.282  0.00  0.00    -0.232 A 
ATOM      6  C   UNL     1      42.317  19.744  19.868  0.00  0.00    +0.208 A 
ATOM      7  O   UNL     1      42.610  18.521  20.359  0.00  0.00    -0.231 OA
ATOM      8  C   UNL     1      43.801  18.257  20.938  0.00  0.00    +0.197 A 
ATOM      9  C   UNL     1      44.067  16.989  21.430  0.00  0.00    -0.054 A 
ATOM     10  C   UNL     1      45.290  16.715  22.027  0.00  0.00    +0.180 A 
ATOM     13  C   UNL     1      46.264  17.704  22.138  0.00  0.00    -0.085 A 
ATOM     14  C   UNL     1      46.021  18.974  21.654  0.00  0.00    +0.219 A 
ATOM     17  C   UNL     1      44.782  19.263  21.048  0.00  0.00    -0.228 A 
ATOM     18  C   UNL     1      44.514  20.558  20.546  0.00  0.00    +0.373 A 
ATOM     19  O   UNL     1      45.433  21.539  20.637  0.00  0.00    -0.570 OA
ATOM     20  O   UNL     1      39.697  21.452  18.254  0.00  0.00    -0.599 OA
ATOM     21  C   UNL     1      43.260  20.793  19.942  0.00  0.00    -0.349 A 
ENDROOT
BRANCH  10  11
ATOM     11  O   UNL     1      45.539  15.471  22.505  0.00  0.00    -0.492 OA
ATOM     12  H   UNL     1      44.908  14.801  22.208  0.00  0.00    +0.396 HD
ENDBRANCH  10  11
BRANCH  14  15
ATOM     15  O   UNL     1      46.969  19.937  21.764  0.00  0.00    -0.467 OA
ATOM     16  H   UNL     1      47.354  20.011  22.648  0.00  0.00    +0.396 HD
ENDBRANCH  14  15
TORSDOF 2
ENDMDL
MODEL 5
REMARK VINA RESULT:      -5.3      1.760      5.829
REMARK  Name = ZINC05765089
REMARK  3 active torsions:
REMARK  status: ('A' for Active; 'I' for Inactive)
REMARK    1  A    between atoms: C1_1  and  C2_2
REMARK    2  A    between atoms: C9_11  and  O5_19
REMARK    3  A    between atoms: C11_13  and  O4_18
REMARK                            x       y       z     vdW  Elec       q    Type
REMARK                         _______ _______ _______ _____ _____    ______ ____
ROOT
ATOM      1  C   UNL     1      41.145  18.153  21.380  0.00  0.00    +0.090 C 
ATOM      2  C   UNL     1      41.339  19.331  20.461  0.00  0.00    +0.059 A 
ATOM      3  C   UNL     1      40.261  20.008  19.990  0.00  0.00    -0.214 A 
ATOM      4  C   UNL     1      40.435  21.111  19.131  0.00  0.00    +0.402 A 
ATOM      5  C   UNL     1      41.721  21.518  18.755  0.00  0.00    -0.232 A 
ATOM      6  C   UNL     1      42.823  20.834  19.230  0.00  0.00    +0.208 A 
ATOM      7  O   UNL     1      44.065  21.223  18.870  0.00  0.00    -0.231 OA
ATOM      8  C   UNL     1      45.165  20.580  19.314  0.00  0.00    +0.197 A 
ATOM      9  C   UNL     1      46.424  21.008  18.925  0.00  0.00    -0.054 A 
ATOM     10  C   UNL     1      47.558  20.349  19.380  0.00  0.00    +0.180 A 
ATOM     13  C   UNL     1      47.448  19.252  20.231  0.00  0.00    -0.085 A 
ATOM     14  C   UNL     1      46.204  18.808  20.632  0.00  0.00    +0.219 A 
ATOM     17  C   UNL     1      45.047  19.470  20.176  0.00  0.00    -0.228 A 
ATOM     18  C   UNL     1      43.764  19.030  20.576  0.00  0.00    +0.373 A 
ATOM     19  O   UNL     1      43.620  17.972  21.398  0.00  0.00    -0.570 OA
ATOM     20  O   UNL     1      39.456  21.717  18.710  0.00  0.00    -0.599 OA
ATOM     21  C   UNL     1      42.638  19.732  20.095  0.00  0.00    -0.349 A 
ENDROOT
BRANCH  10  11
ATOM     11  O   UNL     1      48.784  20.777  18.991  0.00  0.00    -0.492 OA
ATOM     12  H   UNL     1      48.781  21.642  18.560  0.00  0.00    +0.396 HD
ENDBRANCH  10  11
BRANCH  14  15
ATOM     15  O   UNL     1      46.097  17.739  21.460  0.00  0.00    -0.467 OA
ATOM     16  H   UNL     1      45.368  17.143  21.240  0.00  0.00    +0.396 HD
ENDBRANCH  14  15
TORSDOF 2
ENDMDL
MODEL 6
REMARK VINA RESULT:      -5.3      4.402      7.770
REMARK  Name = ZINC05765089
REMARK  3 active torsions:
REMARK  status: ('A' for Active; 'I' for Inactive)
REMARK    1  A    between atoms: C1_1  and  C2_2
REMARK    2  A    between atoms: C9_11  and  O5_19
REMARK    3  A    between atoms: C11_13  and  O4_18
REMARK                            x       y       z     vdW  Elec       q    Type
REMARK                         _______ _______ _______ _____ _____    ______ ____
ROOT
ATOM      1  C   UNL     1      46.247  16.849  17.851  0.00  0.00    +0.090 C 
ATOM      2  C   UNL     1      46.237  18.293  18.283  0.00  0.00    +0.059 A 
ATOM      3  C   UNL     1      45.058  18.923  18.516  0.00  0.00    -0.214 A 
ATOM      4  C   UNL     1      45.042  20.272  18.922  0.00  0.00    +0.402 A 
ATOM      5  C   UNL     1      46.241  20.974  19.087  0.00  0.00    -0.232 A 
ATOM      6  C   UNL     1      47.445  20.341  18.851  0.00  0.00    +0.208 A 
ATOM      7  O   UNL     1      48.605  21.015  19.010  0.00  0.00    -0.231 OA
ATOM      8  C   UNL     1      49.801  20.429  18.789  0.00  0.00    +0.197 A 
ATOM      9  C   UNL     1      50.970  21.151  18.963  0.00  0.00    -0.054 A 
ATOM     10  C   UNL     1      52.201  20.552  18.736  0.00  0.00    +0.180 A 
ATOM     13  C   UNL     1      52.280  19.221  18.334  0.00  0.00    -0.085 A 
ATOM     14  C   UNL     1      51.128  18.482  18.155  0.00  0.00    +0.219 A 
ATOM     17  C   UNL     1      49.873  19.081  18.381  0.00  0.00    -0.228 A 
ATOM     18  C   UNL     1      48.682  18.340  18.204  0.00  0.00    +0.373 A 
ATOM     19  O   UNL     1      48.720  17.051  17.815  0.00  0.00    -0.570 OA
ATOM     20  O   UNL     1      43.972  20.834  19.130  0.00  0.00    -0.599 OA
ATOM     21  C   UNL     1      47.451  18.986  18.450  0.00  0.00    -0.349 A 
ENDROOT
BRANCH  10  11
ATOM     11  O   UNL     1      53.339  21.269  18.909  0.00  0.00    -0.492 OA
ATOM     12  H   UNL     1      53.632  21.328  19.828  0.00  0.00    +0.396 HD
ENDBRANCH  10  11
BRANCH  14  15
ATOM     15  O   UNL     1      51.205  17.186  17.762  0.00  0.00    -0.467 OA
ATOM     16  H   UNL     1      51.551  16.590  18.440  0.00  0.00    +0.396 HD
ENDBRANCH  14  15
TORSDOF 2
ENDMDL
MODEL 7
REMARK VINA RESULT:      -5.3      2.997      4.818
REMARK  Name = ZINC05765089
REMARK  3 active torsions:
REMARK  status: ('A' for Active; 'I' for Inactive)
REMARK    1  A    between atoms: C1_1  and  C2_2
REMARK    2  A    between atoms: C9_11  and  O5_19
REMARK    3  A    between atoms: C11_13  and  O4_18
REMARK                            x       y       z     vdW  Elec       q    Type
REMARK                         _______ _______ _______ _____ _____    ______ ____
ROOT
ATOM      1  C   UNL     1      45.482  13.944  20.550  0.00  0.00    +0.090 C 
ATOM      2  C   UNL     1      45.892  14.777  19.362  0.00  0.00    +0.059 A 
ATOM      3  C   UNL     1      46.629  14.223  18.368  0.00  0.00    -0.214 A 
ATOM      4  C   UNL     1      47.015  14.996  17.254  0.00  0.00    +0.402 A 
ATOM      5  C   UNL     1      46.640  16.341  17.165  0.00  0.00    -0.232 A 
ATOM      6  C   UNL     1      45.890  16.913  18.173  0.00  0.00    +0.208 A 
ATOM      7  O   UNL     1      45.527  18.211  18.091  0.00  0.00    -0.231 OA
ATOM      8  C   UNL     1      44.793  18.804  19.057  0.00  0.00    +0.197 A 
ATOM      9  C   UNL     1      44.438  20.138  18.938  0.00  0.00    -0.054 A 
ATOM     10  C   UNL     1      43.684  20.751  19.929  0.00  0.00    +0.180 A 
ATOM     13  C   UNL     1      43.274  20.038  21.052  0.00  0.00    -0.085 A 
ATOM     14  C   UNL     1      43.616  18.708  21.192  0.00  0.00    +0.219 A 
ATOM     17  C   UNL     1      44.382  18.076  20.192  0.00  0.00    -0.228 A 
ATOM     18  C   UNL     1      44.742  16.714  20.316  0.00  0.00    +0.373 A 
ATOM     19  O   UNL     1      44.363  15.994  21.390  0.00  0.00    -0.570 OA
ATOM     20  O   UNL     1      47.681  14.487  16.360  0.00  0.00    -0.599 OA
ATOM     21  C   UNL     1      45.504  16.128  19.283  0.00  0.00    -0.349 A 
ENDROOT
BRANCH  10  11
ATOM     11  O   UNL     1      43.343  22.057  19.802  0.00  0.00    -0.492 OA
ATOM     12  H   UNL     1      43.844  22.531  19.125  0.00  0.00    +0.396 HD
ENDBRANCH  10  11
BRANCH  14  15
ATOM     15  O   UNL     1      43.218  18.013  22.287  0.00  0.00    -0.467 OA
ATOM     16  H   UNL     1      43.336  18.491  23.120  0.00  0.00    +0.396 HD
ENDBRANCH  14  15
TORSDOF 2
ENDMDL
MODEL 8
REMARK VINA RESULT:      -5.2      3.220      4.866
REMARK  Name = ZINC05765089
REMARK  3 active torsions:
REMARK  status: ('A' for Active; 'I' for Inactive)
REMARK    1  A    between atoms: C1_1  and  C2_2
REMARK    2  A    between atoms: C9_11  and  O5_19
REMARK    3  A    between atoms: C11_13  and  O4_18
REMARK                            x       y       z     vdW  Elec       q    Type
REMARK                         _______ _______ _______ _____ _____    ______ ____
ROOT
ATOM      1  C   UNL     1      48.169  17.385  17.254  0.00  0.00    +0.090 C 
ATOM      2  C   UNL     1      48.857  18.357  18.178  0.00  0.00    +0.059 A 
ATOM      3  C   UNL     1      50.198  18.280  18.365  0.00  0.00    -0.214 A 
ATOM      4  C   UNL     1      50.848  19.186  19.227  0.00  0.00    +0.402 A 
ATOM      5  C   UNL     1      50.116  20.173  19.897  0.00  0.00    -0.232 A 
ATOM      6  C   UNL     1      48.750  20.258  19.712  0.00  0.00    +0.208 A 
ATOM      7  O   UNL     1      48.040  21.208  20.356  0.00  0.00    -0.231 OA
ATOM      8  C   UNL     1      46.704  21.322  20.200  0.00  0.00    +0.197 A 
ATOM      9  C   UNL     1      46.007  22.311  20.877  0.00  0.00    -0.054 A 
ATOM     10  C   UNL     1      44.634  22.431  20.718  0.00  0.00    +0.180 A 
ATOM     13  C   UNL     1      43.938  21.564  19.880  0.00  0.00    -0.085 A 
ATOM     14  C   UNL     1      44.610  20.572  19.196  0.00  0.00    +0.219 A 
ATOM     17  C   UNL     1      46.005  20.441  19.350  0.00  0.00    -0.228 A 
ATOM     18  C   UNL     1      46.712  19.431  18.657  0.00  0.00    +0.373 A 
ATOM     19  O   UNL     1      46.070  18.575  17.838  0.00  0.00    -0.570 OA
ATOM     20  O   UNL     1      52.061  19.109  19.390  0.00  0.00    -0.599 OA
ATOM     21  C   UNL     1      48.108  19.348  18.842  0.00  0.00    -0.349 A 
ENDROOT
BRANCH  10  11
ATOM     11  O   UNL     1      43.963  23.401  21.386  0.00  0.00    -0.492 OA
ATOM     12  H   UNL     1      43.228  23.786  20.890  0.00  0.00    +0.396 HD
ENDBRANCH  10  11
BRANCH  14  15
ATOM     15  O   UNL     1      43.931  19.727  18.381  0.00  0.00    -0.467 OA
ATOM     16  H   UNL     1      44.329  19.622  17.505  0.00  0.00    +0.396 HD
ENDBRANCH  14  15
TORSDOF 2
ENDMDL
MODEL 9
REMARK VINA RESULT:      -5.2      2.935      3.468
REMARK  Name = ZINC05765089
REMARK  3 active torsions:
REMARK  status: ('A' for Active; 'I' for Inactive)
REMARK    1  A    between atoms: C1_1  and  C2_2
REMARK    2  A    between atoms: C9_11  and  O5_19
REMARK    3  A    between atoms: C11_13  and  O4_18
REMARK                            x       y       z     vdW  Elec       q    Type
REMARK                         _______ _______ _______ _____ _____    ______ ____
ROOT
ATOM      1  C   UNL     1      49.839  19.522  19.348  0.00  0.00    +0.090 C 
ATOM      2  C   UNL     1      48.784  18.675  18.684  0.00  0.00    +0.059 A 
ATOM      3  C   UNL     1      49.135  17.525  18.055  0.00  0.00    -0.214 A 
ATOM      4  C   UNL     1      48.154  16.728  17.433  0.00  0.00    +0.402 A 
ATOM      5  C   UNL     1      46.809  17.116  17.458  0.00  0.00    -0.232 A 
ATOM      6  C   UNL     1      46.444  18.284  18.095  0.00  0.00    +0.208 A 
ATOM      7  O   UNL     1      45.147  18.662  18.122  0.00  0.00    -0.231 OA
ATOM      8  C   UNL     1      44.752  19.798  18.735  0.00  0.00    +0.197 A 
ATOM      9  C   UNL     1      43.413  20.153  18.743  0.00  0.00    -0.054 A 
ATOM     10  C   UNL     1      43.004  21.320  19.373  0.00  0.00    +0.180 A 
ATOM     13  C   UNL     1      43.928  22.148  20.005  0.00  0.00    -0.085 A 
ATOM     14  C   UNL     1      45.268  21.814  20.010  0.00  0.00    +0.219 A 
ATOM     17  C   UNL     1      45.694  20.631  19.373  0.00  0.00    -0.228 A 
ATOM     18  C   UNL     1      47.062  20.272  19.368  0.00  0.00    +0.373 A 
ATOM     19  O   UNL     1      47.984  21.049  19.969  0.00  0.00    -0.570 OA
ATOM     20  O   UNL     1      48.479  15.690  16.867  0.00  0.00    -0.599 OA
ATOM     21  C   UNL     1      47.434  19.074  18.721  0.00  0.00    -0.349 A 
ENDROOT
BRANCH  10  11
ATOM     11  O   UNL     1      41.691  21.657  19.373  0.00  0.00    -0.492 OA
ATOM     12  H   UNL     1      41.456  22.328  18.717  0.00  0.00    +0.396 HD
ENDBRANCH  10  11
BRANCH  14  15
ATOM     15  O   UNL     1      46.168  22.621  20.624  0.00  0.00    -0.467 OA
ATOM     16  H   UNL     1      46.053  22.681  21.583  0.00  0.00    +0.396 HD
ENDBRANCH  14  15
TORSDOF 2
ENDMDL
