MODEL 1
REMARK VINA RESULT:      -5.9      0.000      0.000
REMARK  Name = ZINC00608186
REMARK  12 active torsions:
REMARK  status: ('A' for Active; 'I' for Inactive)
REMARK    1  A    between atoms: C1_1  and  C2_2
REMARK    2  A    between atoms: C4_4  and  O8_27
REMARK    3  A    between atoms: C5_5  and  C19_25
REMARK    4  A    between atoms: C7_7  and  C8_8
REMARK    5  A    between atoms: C8_8  and  O2_10
REMARK    6  A    between atoms: O2_10  and  C9_11
REMARK    7  A    between atoms: C11_13  and  C18_23
REMARK    8  A    between atoms: C12_14  and  C16_19
REMARK    9  A    between atoms: C13_15  and  O3_18
REMARK   10  A    between atoms: C14_16  and  C15_17
REMARK   11  A    between atoms: C16_19  and  O5_21
REMARK   12  A    between atoms: O5_21  and  C17_22
REMARK                            x       y       z     vdW  Elec       q    Type
REMARK                         _______ _______ _______ _____ _____    ______ ____
ROOT
ATOM     14  O   UNL     1      45.892  19.185  20.909  0.00  0.00    -0.294 OA
ENDROOT
BRANCH  14  15
ATOM     15  C   UNL     1      45.876  17.942  20.366  0.00  0.00    +0.141 A 
ATOM     16  C   UNL     1      45.717  16.829  21.187  0.00  0.00    +0.010 A 
ATOM     17  C   UNL     1      45.698  15.573  20.652  0.00  0.00    -0.025 A 
ATOM     18  C   UNL     1      45.526  14.375  21.550  0.00  0.00    +0.109 C 
ATOM     19  C   UNL     1      45.841  15.397  19.271  0.00  0.00    -0.146 A 
ATOM     24  C   UNL     1      46.001  16.516  18.440  0.00  0.00    +0.164 A 
ATOM     27  C   UNL     1      46.012  17.786  18.995  0.00  0.00    -0.111 A 
ATOM     28  C   UNL     1      46.179  18.994  18.111  0.00  0.00    +0.123 C 
BRANCH  19  20
ATOM     20  C   UNL     1      45.822  14.044  18.693  0.00  0.00    +0.531 C 
ATOM     23  O   UNL     1      44.809  13.374  18.749  0.00  0.00    -0.497 OA
BRANCH  20  21
ATOM     21  O   UNL     1      46.927  13.548  18.103  0.00  0.00    -0.342 OA
ATOM     22  C   UNL     1      46.750  12.886  16.849  0.00  0.00    +0.256 C 
ENDBRANCH  20  21
ENDBRANCH  19  20
BRANCH  24  25
ATOM     25  O   UNL     1      46.139  16.357  17.100  0.00  0.00    -0.486 OA
ATOM     26  H   UNL     1      46.609  17.082  16.665  0.00  0.00    +0.397 HD
ENDBRANCH  24  25
ENDBRANCH  14  15
BRANCH  14  13
ATOM     13  C   UNL     1      44.733  19.683  21.387  0.00  0.00    +0.565 C 
ATOM     29  O   UNL     1      44.357  19.381  22.502  0.00  0.00    -0.499 OA
BRANCH  13  12
ATOM      1  C   UNL     1      45.418  22.484  21.277  0.00  0.00    +0.081 C 
ATOM      2  C   UNL     1      44.245  21.953  20.494  0.00  0.00    +0.047 A 
ATOM      3  C   UNL     1      43.498  22.808  19.717  0.00  0.00    -0.171 A 
ATOM      4  C   UNL     1      42.414  22.334  18.990  0.00  0.00    +0.236 A 
ATOM      7  C   UNL     1      42.071  20.970  19.044  0.00  0.00    -0.364 A 
ATOM     10  C   UNL     1      42.831  20.096  19.836  0.00  0.00    +0.355 A 
ATOM     11  O   UNL     1      42.513  18.782  19.897  0.00  0.00    -0.676 OA
ATOM     12  C   UNL     1      43.926  20.592  20.558  0.00  0.00    -0.286 A 
BRANCH   4   5
ATOM      5  O   UNL     1      41.686  23.185  18.228  0.00  0.00    -0.491 OA
ATOM      6  H   UNL     1      42.066  24.071  18.156  0.00  0.00    +0.387 HD
ENDBRANCH   4   5
BRANCH   7   8
ATOM      8  C   UNL     1      40.928  20.468  18.279  0.00  0.00    +0.491 C 
ATOM      9  O   UNL     1      39.830  20.956  18.438  0.00  0.00    -0.505 OA
ENDBRANCH   7   8
ENDBRANCH  13  12
ENDBRANCH  14  13
TORSDOF 8
ENDMDL
MODEL 2
REMARK VINA RESULT:      -5.7      2.467      3.136
REMARK  Name = ZINC00608186
REMARK  12 active torsions:
REMARK  status: ('A' for Active; 'I' for Inactive)
REMARK    1  A    between atoms: C1_1  and  C2_2
REMARK    2  A    between atoms: C4_4  and  O8_27
REMARK    3  A    between atoms: C5_5  and  C19_25
REMARK    4  A    between atoms: C7_7  and  C8_8
REMARK    5  A    between atoms: C8_8  and  O2_10
REMARK    6  A    between atoms: O2_10  and  C9_11
REMARK    7  A    between atoms: C11_13  and  C18_23
REMARK    8  A    between atoms: C12_14  and  C16_19
REMARK    9  A    between atoms: C13_15  and  O3_18
REMARK   10  A    between atoms: C14_16  and  C15_17
REMARK   11  A    between atoms: C16_19  and  O5_21
REMARK   12  A    between atoms: O5_21  and  C17_22
REMARK                            x       y       z     vdW  Elec       q    Type
REMARK                         _______ _______ _______ _____ _____    ______ ____
ROOT
ATOM     14  O   UNL     1      46.476  21.108  19.467  0.00  0.00    -0.294 OA
ENDROOT
BRANCH  14  15
ATOM     15  C   UNL     1      47.145  19.980  19.116  0.00  0.00    +0.141 A 
ATOM     16  C   UNL     1      46.528  19.034  18.301  0.00  0.00    +0.010 A 
ATOM     17  C   UNL     1      47.191  17.896  17.942  0.00  0.00    -0.025 A 
ATOM     18  C   UNL     1      46.514  16.878  17.061  0.00  0.00    +0.109 C 
ATOM     19  C   UNL     1      48.496  17.673  18.392  0.00  0.00    -0.146 A 
ATOM     24  C   UNL     1      49.121  18.624  19.213  0.00  0.00    +0.164 A 
ATOM     27  C   UNL     1      48.440  19.778  19.566  0.00  0.00    -0.111 A 
ATOM     28  C   UNL     1      49.104  20.807  20.443  0.00  0.00    +0.123 C 
BRANCH  19  20
ATOM     20  C   UNL     1      49.211  16.446  18.006  0.00  0.00    +0.531 C 
ATOM     23  O   UNL     1      48.949  15.393  18.554  0.00  0.00    -0.497 OA
BRANCH  20  21
ATOM     21  O   UNL     1      50.155  16.490  17.046  0.00  0.00    -0.342 OA
ATOM     22  C   UNL     1      51.289  15.636  17.212  0.00  0.00    +0.256 C 
ENDBRANCH  20  21
ENDBRANCH  19  20
BRANCH  24  25
ATOM     25  O   UNL     1      50.387  18.418  19.655  0.00  0.00    -0.486 OA
ATOM     26  H   UNL     1      50.440  18.140  20.580  0.00  0.00    +0.397 HD
ENDBRANCH  24  25
ENDBRANCH  14  15
BRANCH  14  13
ATOM     13  C   UNL     1      45.391  20.981  20.258  0.00  0.00    +0.565 C 
ATOM     29  O   UNL     1      45.514  20.571  21.396  0.00  0.00    -0.499 OA
BRANCH  13  12
ATOM      1  C   UNL     1      44.728  23.763  19.867  0.00  0.00    +0.081 C 
ATOM      2  C   UNL     1      43.723  22.685  19.548  0.00  0.00    +0.047 A 
ATOM      3  C   UNL     1      42.481  23.028  19.064  0.00  0.00    -0.171 A 
ATOM      4  C   UNL     1      41.545  22.047  18.766  0.00  0.00    +0.236 A 
ATOM      7  C   UNL     1      41.861  20.690  18.961  0.00  0.00    -0.364 A 
ATOM     10  C   UNL     1      43.125  20.337  19.456  0.00  0.00    +0.355 A 
ATOM     11  O   UNL     1      43.442  19.034  19.648  0.00  0.00    -0.676 OA
ATOM     12  C   UNL     1      44.060  21.340  19.744  0.00  0.00    -0.286 A 
BRANCH   4   5
ATOM      5  O   UNL     1      40.327  22.397  18.289  0.00  0.00    -0.491 OA
ATOM      6  H   UNL     1      40.211  23.349  18.168  0.00  0.00    +0.387 HD
ENDBRANCH   4   5
BRANCH   7   8
ATOM      8  C   UNL     1      40.874  19.653  18.649  0.00  0.00    +0.491 C 
ATOM      9  O   UNL     1      40.340  19.631  17.561  0.00  0.00    -0.505 OA
ENDBRANCH   7   8
ENDBRANCH  13  12
ENDBRANCH  14  13
TORSDOF 8
ENDMDL
MODEL 3
REMARK VINA RESULT:      -5.7      3.762      5.803
REMARK  Name = ZINC00608186
REMARK  12 active torsions:
REMARK  status: ('A' for Active; 'I' for Inactive)
REMARK    1  A    between atoms: C1_1  and  C2_2
REMARK    2  A    between atoms: C4_4  and  O8_27
REMARK    3  A    between atoms: C5_5  and  C19_25
REMARK    4  A    between atoms: C7_7  and  C8_8
REMARK    5  A    between atoms: C8_8  and  O2_10
REMARK    6  A    between atoms: O2_10  and  C9_11
REMARK    7  A    between atoms: C11_13  and  C18_23
REMARK    8  A    between atoms: C12_14  and  C16_19
REMARK    9  A    between atoms: C13_15  and  O3_18
REMARK   10  A    between atoms: C14_16  and  C15_17
REMARK   11  A    between atoms: C16_19  and  O5_21
REMARK   12  A    between atoms: O5_21  and  C17_22
REMARK                            x       y       z     vdW  Elec       q    Type
REMARK                         _______ _______ _______ _____ _____    ______ ____
ROOT
ATOM     14  O   UNL     1      47.636  16.604  18.866  0.00  0.00    -0.294 OA
ENDROOT
BRANCH  14  15
ATOM     15  C   UNL     1      48.731  17.327  18.518  0.00  0.00    +0.141 A 
ATOM     16  C   UNL     1      48.866  18.639  18.966  0.00  0.00    +0.010 A 
ATOM     17  C   UNL     1      49.963  19.376  18.623  0.00  0.00    -0.025 A 
ATOM     18  C   UNL     1      50.098  20.795  19.112  0.00  0.00    +0.109 C 
ATOM     19  C   UNL     1      50.959  18.815  17.817  0.00  0.00    -0.146 A 
ATOM     24  C   UNL     1      50.828  17.494  17.365  0.00  0.00    +0.164 A 
ATOM     27  C   UNL     1      49.713  16.755  17.724  0.00  0.00    -0.111 A 
ATOM     28  C   UNL     1      49.564  15.333  17.247  0.00  0.00    +0.123 C 
BRANCH  19  20
ATOM     20  C   UNL     1      52.142  19.610  17.446  0.00  0.00    +0.531 C 
ATOM     23  O   UNL     1      52.998  19.849  18.276  0.00  0.00    -0.497 OA
BRANCH  20  21
ATOM     21  O   UNL     1      52.276  20.071  16.187  0.00  0.00    -0.342 OA
ATOM     22  C   UNL     1      51.620  21.302  15.874  0.00  0.00    +0.256 C 
ENDBRANCH  20  21
ENDBRANCH  19  20
BRANCH  24  25
ATOM     25  O   UNL     1      51.789  16.941  16.583  0.00  0.00    -0.486 OA
ATOM     26  H   UNL     1      51.814  17.294  15.683  0.00  0.00    +0.397 HD
ENDBRANCH  24  25
ENDBRANCH  14  15
BRANCH  14  13
ATOM     13  C   UNL     1      46.445  16.971  18.351  0.00  0.00    +0.565 C 
ATOM     29  O   UNL     1      46.189  16.738  17.186  0.00  0.00    -0.499 OA
BRANCH  13  12
ATOM      1  C   UNL     1      45.082  15.481  20.413  0.00  0.00    +0.081 C 
ATOM      2  C   UNL     1      44.786  16.945  20.205  0.00  0.00    +0.047 A 
ATOM      3  C   UNL     1      43.863  17.576  21.006  0.00  0.00    -0.171 A 
ATOM      4  C   UNL     1      43.579  18.924  20.827  0.00  0.00    +0.236 A 
ATOM      7  C   UNL     1      44.235  19.654  19.819  0.00  0.00    -0.364 A 
ATOM     10  C   UNL     1      45.177  19.012  19.000  0.00  0.00    +0.355 A 
ATOM     11  O   UNL     1      45.816  19.702  18.026  0.00  0.00    -0.676 OA
ATOM     12  C   UNL     1      45.455  17.653  19.200  0.00  0.00    -0.286 A 
BRANCH   4   5
ATOM      5  O   UNL     1      42.669  19.535  21.622  0.00  0.00    -0.491 OA
ATOM      6  H   UNL     1      42.460  19.045  22.429  0.00  0.00    +0.387 HD
ENDBRANCH   4   5
BRANCH   7   8
ATOM      8  C   UNL     1      43.937  21.075  19.626  0.00  0.00    +0.491 C 
ATOM      9  O   UNL     1      42.816  21.424  19.322  0.00  0.00    -0.505 OA
ENDBRANCH   7   8
ENDBRANCH  13  12
ENDBRANCH  14  13
TORSDOF 8
ENDMDL
MODEL 4
REMARK VINA RESULT:      -5.7      3.455      4.855
REMARK  Name = ZINC00608186
REMARK  12 active torsions:
REMARK  status: ('A' for Active; 'I' for Inactive)
REMARK    1  A    between atoms: C1_1  and  C2_2
REMARK    2  A    between atoms: C4_4  and  O8_27
REMARK    3  A    between atoms: C5_5  and  C19_25
REMARK    4  A    between atoms: C7_7  and  C8_8
REMARK    5  A    between atoms: C8_8  and  O2_10
REMARK    6  A    between atoms: O2_10  and  C9_11
REMARK    7  A    between atoms: C11_13  and  C18_23
REMARK    8  A    between atoms: C12_14  and  C16_19
REMARK    9  A    between atoms: C13_15  and  O3_18
REMARK   10  A    between atoms: C14_16  and  C15_17
REMARK   11  A    between atoms: C16_19  and  O5_21
REMARK   12  A    between atoms: O5_21  and  C17_22
REMARK                            x       y       z     vdW  Elec       q    Type
REMARK                         _______ _______ _______ _____ _____    ______ ____
ROOT
ATOM     14  O   UNL     1      46.795  18.180  20.569  0.00  0.00    -0.294 OA
ENDROOT
BRANCH  14  15
ATOM     15  C   UNL     1      47.960  18.344  19.891  0.00  0.00    +0.141 A 
ATOM     16  C   UNL     1      48.748  17.237  19.589  0.00  0.00    +0.010 A 
ATOM     17  C   UNL     1      49.921  17.390  18.908  0.00  0.00    -0.025 A 
ATOM     18  C   UNL     1      50.767  16.185  18.587  0.00  0.00    +0.109 C 
ATOM     19  C   UNL     1      50.339  18.664  18.510  0.00  0.00    -0.146 A 
ATOM     24  C   UNL     1      49.548  19.782  18.812  0.00  0.00    +0.164 A 
ATOM     27  C   UNL     1      48.356  19.613  19.499  0.00  0.00    -0.111 A 
ATOM     28  C   UNL     1      47.497  20.807  19.824  0.00  0.00    +0.123 C 
BRANCH  19  20
ATOM     20  C   UNL     1      51.604  18.830  17.776  0.00  0.00    +0.531 C 
ATOM     23  O   UNL     1      52.616  19.145  18.374  0.00  0.00    -0.497 OA
BRANCH  20  21
ATOM     21  O   UNL     1      51.642  18.634  16.444  0.00  0.00    -0.342 OA
ATOM     22  C   UNL     1      51.971  19.763  15.631  0.00  0.00    +0.256 C 
ENDBRANCH  20  21
ENDBRANCH  19  20
BRANCH  24  25
ATOM     25  O   UNL     1      49.943  21.022  18.430  0.00  0.00    -0.486 OA
ATOM     26  H   UNL     1      49.485  21.740  18.888  0.00  0.00    +0.397 HD
ENDBRANCH  24  25
ENDBRANCH  14  15
BRANCH  14  13
ATOM     13  C   UNL     1      45.723  17.729  19.885  0.00  0.00    +0.565 C 
ATOM     29  O   UNL     1      45.867  16.907  19.002  0.00  0.00    -0.499 OA
BRANCH  13  12
ATOM      1  C   UNL     1      44.292  16.607  22.125  0.00  0.00    +0.081 C 
ATOM      2  C   UNL     1      43.672  17.700  21.293  0.00  0.00    +0.047 A 
ATOM      3  C   UNL     1      42.417  18.169  21.605  0.00  0.00    -0.171 A 
ATOM      4  C   UNL     1      41.833  19.176  20.848  0.00  0.00    +0.236 A 
ATOM      7  C   UNL     1      42.523  19.723  19.750  0.00  0.00    -0.364 A 
ATOM     10  C   UNL     1      43.802  19.246  19.429  0.00  0.00    +0.355 A 
ATOM     11  O   UNL     1      44.478  19.763  18.376  0.00  0.00    -0.676 OA
ATOM     12  C   UNL     1      44.379  18.234  20.209  0.00  0.00    -0.286 A 
BRANCH   4   5
ATOM      5  O   UNL     1      40.597  19.631  21.165  0.00  0.00    -0.491 OA
ATOM      6  H   UNL     1      39.876  19.116  20.776  0.00  0.00    +0.387 HD
ENDBRANCH   4   5
BRANCH   7   8
ATOM      8  C   UNL     1      41.908  20.784  18.949  0.00  0.00    +0.491 C 
ATOM      9  O   UNL     1      40.936  20.542  18.265  0.00  0.00    -0.505 OA
ENDBRANCH   7   8
ENDBRANCH  13  12
ENDBRANCH  14  13
TORSDOF 8
ENDMDL
MODEL 5
REMARK VINA RESULT:      -5.6      4.238      6.368
REMARK  Name = ZINC00608186
REMARK  12 active torsions:
REMARK  status: ('A' for Active; 'I' for Inactive)
REMARK    1  A    between atoms: C1_1  and  C2_2
REMARK    2  A    between atoms: C4_4  and  O8_27
REMARK    3  A    between atoms: C5_5  and  C19_25
REMARK    4  A    between atoms: C7_7  and  C8_8
REMARK    5  A    between atoms: C8_8  and  O2_10
REMARK    6  A    between atoms: O2_10  and  C9_11
REMARK    7  A    between atoms: C11_13  and  C18_23
REMARK    8  A    between atoms: C12_14  and  C16_19
REMARK    9  A    between atoms: C13_15  and  O3_18
REMARK   10  A    between atoms: C14_16  and  C15_17
REMARK   11  A    between atoms: C16_19  and  O5_21
REMARK   12  A    between atoms: O5_21  and  C17_22
REMARK                            x       y       z     vdW  Elec       q    Type
REMARK                         _______ _______ _______ _____ _____    ______ ____
ROOT
ATOM     14  O   UNL     1      47.186  16.983  18.397  0.00  0.00    -0.294 OA
ENDROOT
BRANCH  14  15
ATOM     15  C   UNL     1      46.887  15.705  18.050  0.00  0.00    +0.141 A 
ATOM     16  C   UNL     1      47.561  15.098  16.993  0.00  0.00    +0.010 A 
ATOM     17  C   UNL     1      47.269  13.813  16.636  0.00  0.00    -0.025 A 
ATOM     18  C   UNL     1      48.004  13.166  15.490  0.00  0.00    +0.109 C 
ATOM     19  C   UNL     1      46.289  13.097  17.332  0.00  0.00    -0.146 A 
ATOM     24  C   UNL     1      45.609  13.704  18.398  0.00  0.00    +0.164 A 
ATOM     27  C   UNL     1      45.917  15.007  18.754  0.00  0.00    -0.111 A 
ATOM     28  C   UNL     1      45.195  15.667  19.900  0.00  0.00    +0.123 C 
BRANCH  19  20
ATOM     20  C   UNL     1      45.973  11.712  16.947  0.00  0.00    +0.531 C 
ATOM     23  O   UNL     1      46.689  10.801  17.316  0.00  0.00    -0.497 OA
BRANCH  20  21
ATOM     21  O   UNL     1      44.892  11.454  16.185  0.00  0.00    -0.342 OA
ATOM     22  C   UNL     1      44.988  10.357  15.274  0.00  0.00    +0.256 C 
ENDBRANCH  20  21
ENDBRANCH  19  20
BRANCH  24  25
ATOM     25  O   UNL     1      44.656  13.019  19.079  0.00  0.00    -0.486 OA
ATOM     26  H   UNL     1      43.874  12.804  18.552  0.00  0.00    +0.397 HD
ENDBRANCH  24  25
ENDBRANCH  14  15
BRANCH  14  13
ATOM     13  C   UNL     1      48.346  17.208  19.048  0.00  0.00    +0.565 C 
ATOM     29  O   UNL     1      48.680  16.481  19.962  0.00  0.00    -0.499 OA
BRANCH  13  12
ATOM      1  C   UNL     1      47.925  19.802  20.240  0.00  0.00    +0.081 C 
ATOM      2  C   UNL     1      49.015  19.597  19.219  0.00  0.00    +0.047 A 
ATOM      3  C   UNL     1      49.818  20.654  18.855  0.00  0.00    -0.171 A 
ATOM      4  C   UNL     1      50.827  20.482  17.916  0.00  0.00    +0.236 A 
ATOM      7  C   UNL     1      51.032  19.221  17.327  0.00  0.00    -0.364 A 
ATOM     10  C   UNL     1      50.215  18.142  17.695  0.00  0.00    +0.355 A 
ATOM     11  O   UNL     1      50.402  16.923  17.136  0.00  0.00    -0.676 OA
ATOM     12  C   UNL     1      49.206  18.333  18.650  0.00  0.00    -0.286 A 
BRANCH   4   5
ATOM      5  O   UNL     1      51.611  21.529  17.567  0.00  0.00    -0.491 OA
ATOM      6  H   UNL     1      51.934  21.492  16.656  0.00  0.00    +0.387 HD
ENDBRANCH   4   5
BRANCH   7   8
ATOM      8  C   UNL     1      52.094  19.037  16.335  0.00  0.00    +0.491 C 
ATOM      9  O   UNL     1      52.198  19.810  15.406  0.00  0.00    -0.505 OA
ENDBRANCH   7   8
ENDBRANCH  13  12
ENDBRANCH  14  13
TORSDOF 8
ENDMDL
MODEL 6
REMARK VINA RESULT:      -5.4      3.197      4.108
REMARK  Name = ZINC00608186
REMARK  12 active torsions:
REMARK  status: ('A' for Active; 'I' for Inactive)
REMARK    1  A    between atoms: C1_1  and  C2_2
REMARK    2  A    between atoms: C4_4  and  O8_27
REMARK    3  A    between atoms: C5_5  and  C19_25
REMARK    4  A    between atoms: C7_7  and  C8_8
REMARK    5  A    between atoms: C8_8  and  O2_10
REMARK    6  A    between atoms: O2_10  and  C9_11
REMARK    7  A    between atoms: C11_13  and  C18_23
REMARK    8  A    between atoms: C12_14  and  C16_19
REMARK    9  A    between atoms: C13_15  and  O3_18
REMARK   10  A    between atoms: C14_16  and  C15_17
REMARK   11  A    between atoms: C16_19  and  O5_21
REMARK   12  A    between atoms: O5_21  and  C17_22
REMARK                            x       y       z     vdW  Elec       q    Type
REMARK                         _______ _______ _______ _____ _____    ______ ____
ROOT
ATOM     14  O   UNL     1      46.386  21.090  18.941  0.00  0.00    -0.294 OA
ENDROOT
BRANCH  14  15
ATOM     15  C   UNL     1      47.503  20.367  19.210  0.00  0.00    +0.141 A 
ATOM     16  C   UNL     1      48.532  20.934  19.957  0.00  0.00    +0.010 A 
ATOM     17  C   UNL     1      49.660  20.216  20.234  0.00  0.00    -0.025 A 
ATOM     18  C   UNL     1      50.768  20.839  21.043  0.00  0.00    +0.109 C 
ATOM     19  C   UNL     1      49.788  18.904  19.767  0.00  0.00    -0.146 A 
ATOM     24  C   UNL     1      48.753  18.329  19.014  0.00  0.00    +0.164 A 
ATOM     27  C   UNL     1      47.611  19.066  18.744  0.00  0.00    -0.111 A 
ATOM     28  C   UNL     1      46.492  18.456  17.941  0.00  0.00    +0.123 C 
BRANCH  19  20
ATOM     20  C   UNL     1      51.004  18.130  20.064  0.00  0.00    +0.531 C 
ATOM     23  O   UNL     1      50.971  17.241  20.893  0.00  0.00    -0.497 OA
BRANCH  20  21
ATOM     21  O   UNL     1      52.154  18.406  19.418  0.00  0.00    -0.342 OA
ATOM     22  C   UNL     1      52.926  17.293  18.964  0.00  0.00    +0.256 C 
ENDBRANCH  20  21
ENDBRANCH  19  20
BRANCH  24  25
ATOM     25  O   UNL     1      48.867  17.057  18.557  0.00  0.00    -0.486 OA
ATOM     26  H   UNL     1      49.076  16.996  17.614  0.00  0.00    +0.397 HD
ENDBRANCH  24  25
ENDBRANCH  14  15
BRANCH  14  13
ATOM     13  C   UNL     1      45.411  21.120  19.873  0.00  0.00    +0.565 C 
ATOM     29  O   UNL     1      45.678  20.898  21.038  0.00  0.00    -0.499 OA
BRANCH  13  12
ATOM      1  C   UNL     1      44.587  23.872  19.592  0.00  0.00    +0.081 C 
ATOM      2  C   UNL     1      43.611  22.751  19.338  0.00  0.00    +0.047 A 
ATOM      3  C   UNL     1      42.319  23.042  18.966  0.00  0.00    -0.171 A 
ATOM      4  C   UNL     1      41.407  22.021  18.728  0.00  0.00    +0.236 A 
ATOM      7  C   UNL     1      41.802  20.678  18.870  0.00  0.00    -0.364 A 
ATOM     10  C   UNL     1      43.118  20.379  19.250  0.00  0.00    +0.355 A 
ATOM     11  O   UNL     1      43.511  19.091  19.390  0.00  0.00    -0.676 OA
ATOM     12  C   UNL     1      44.026  21.422  19.479  0.00  0.00    -0.286 A 
BRANCH   4   5
ATOM      5  O   UNL     1      40.138  22.319  18.362  0.00  0.00    -0.491 OA
ATOM      6  H   UNL     1      39.592  21.545  18.168  0.00  0.00    +0.387 HD
ENDBRANCH   4   5
BRANCH   7   8
ATOM      8  C   UNL     1      40.842  19.600  18.622  0.00  0.00    +0.491 C 
ATOM      9  O   UNL     1      40.274  19.526  17.553  0.00  0.00    -0.505 OA
ENDBRANCH   7   8
ENDBRANCH  13  12
ENDBRANCH  14  13
TORSDOF 8
ENDMDL
MODEL 7
REMARK VINA RESULT:      -5.4      3.515      5.574
REMARK  Name = ZINC00608186
REMARK  12 active torsions:
REMARK  status: ('A' for Active; 'I' for Inactive)
REMARK    1  A    between atoms: C1_1  and  C2_2
REMARK    2  A    between atoms: C4_4  and  O8_27
REMARK    3  A    between atoms: C5_5  and  C19_25
REMARK    4  A    between atoms: C7_7  and  C8_8
REMARK    5  A    between atoms: C8_8  and  O2_10
REMARK    6  A    between atoms: O2_10  and  C9_11
REMARK    7  A    between atoms: C11_13  and  C18_23
REMARK    8  A    between atoms: C12_14  and  C16_19
REMARK    9  A    between atoms: C13_15  and  O3_18
REMARK   10  A    between atoms: C14_16  and  C15_17
REMARK   11  A    between atoms: C16_19  and  O5_21
REMARK   12  A    between atoms: O5_21  and  C17_22
REMARK                            x       y       z     vdW  Elec       q    Type
REMARK                         _______ _______ _______ _____ _____    ______ ____
ROOT
ATOM     14  O   UNL     1      46.282  17.817  19.117  0.00  0.00    -0.294 OA
ENDROOT
BRANCH  14  15
ATOM     15  C   UNL     1      46.198  16.521  18.720  0.00  0.00    +0.141 A 
ATOM     16  C   UNL     1      45.709  15.558  19.598  0.00  0.00    +0.010 A 
ATOM     17  C   UNL     1      45.620  14.252  19.210  0.00  0.00    -0.025 A 
ATOM     18  C   UNL     1      45.089  13.217  20.168  0.00  0.00    +0.109 C 
ATOM     19  C   UNL     1      46.021  13.874  17.924  0.00  0.00    -0.146 A 
ATOM     24  C   UNL     1      46.514  14.842  17.036  0.00  0.00    +0.164 A 
ATOM     27  C   UNL     1      46.595  16.165  17.440  0.00  0.00    -0.111 A 
ATOM     28  C   UNL     1      47.119  17.212  16.493  0.00  0.00    +0.123 C 
BRANCH  19  20
ATOM     20  C   UNL     1      45.926  12.466  17.505  0.00  0.00    +0.531 C 
ATOM     23  O   UNL     1      44.992  12.099  16.819  0.00  0.00    -0.497 OA
BRANCH  20  21
ATOM     21  O   UNL     1      46.873  11.586  17.882  0.00  0.00    -0.342 OA
ATOM     22  C   UNL     1      47.187  10.538  16.962  0.00  0.00    +0.256 C 
ENDBRANCH  20  21
ENDBRANCH  19  20
BRANCH  24  25
ATOM     25  O   UNL     1      46.906  14.486  15.787  0.00  0.00    -0.486 OA
ATOM     26  H   UNL     1      46.743  13.556  15.574  0.00  0.00    +0.397 HD
ENDBRANCH  24  25
ENDBRANCH  14  15
BRANCH  14  13
ATOM     13  C   UNL     1      47.306  18.167  19.922  0.00  0.00    +0.565 C 
ATOM     29  O   UNL     1      47.300  17.838  21.091  0.00  0.00    -0.499 OA
BRANCH  13  12
ATOM      1  C   UNL     1      47.098  21.043  19.790  0.00  0.00    +0.081 C 
ATOM      2  C   UNL     1      48.346  20.344  19.313  0.00  0.00    +0.047 A 
ATOM      3  C   UNL     1      49.395  21.082  18.815  0.00  0.00    -0.171 A 
ATOM      4  C   UNL     1      50.551  20.453  18.371  0.00  0.00    +0.236 A 
ATOM      7  C   UNL     1      50.655  19.051  18.426  0.00  0.00    -0.364 A 
ATOM     10  C   UNL     1      49.587  18.296  18.933  0.00  0.00    +0.355 A 
ATOM     11  O   UNL     1      49.674  16.946  18.993  0.00  0.00    -0.676 OA
ATOM     12  C   UNL     1      48.431  18.949  19.383  0.00  0.00    -0.286 A 
BRANCH   4   5
ATOM      5  O   UNL     1      51.577  21.190  17.883  0.00  0.00    -0.491 OA
ATOM      6  H   UNL     1      51.723  22.021  18.354  0.00  0.00    +0.387 HD
ENDBRANCH   4   5
BRANCH   7   8
ATOM      8  C   UNL     1      51.873  18.385  17.958  0.00  0.00    +0.491 C 
ATOM      9  O   UNL     1      52.949  18.686  18.427  0.00  0.00    -0.505 OA
ENDBRANCH   7   8
ENDBRANCH  13  12
ENDBRANCH  14  13
TORSDOF 8
ENDMDL
MODEL 8
REMARK VINA RESULT:      -5.4      4.127      5.934
REMARK  Name = ZINC00608186
REMARK  12 active torsions:
REMARK  status: ('A' for Active; 'I' for Inactive)
REMARK    1  A    between atoms: C1_1  and  C2_2
REMARK    2  A    between atoms: C4_4  and  O8_27
REMARK    3  A    between atoms: C5_5  and  C19_25
REMARK    4  A    between atoms: C7_7  and  C8_8
REMARK    5  A    between atoms: C8_8  and  O2_10
REMARK    6  A    between atoms: O2_10  and  C9_11
REMARK    7  A    between atoms: C11_13  and  C18_23
REMARK    8  A    between atoms: C12_14  and  C16_19
REMARK    9  A    between atoms: C13_15  and  O3_18
REMARK   10  A    between atoms: C14_16  and  C15_17
REMARK   11  A    between atoms: C16_19  and  O5_21
REMARK   12  A    between atoms: O5_21  and  C17_22
REMARK                            x       y       z     vdW  Elec       q    Type
REMARK                         _______ _______ _______ _____ _____    ______ ____
ROOT
ATOM     14  O   UNL     1      46.593  17.841  19.175  0.00  0.00    -0.294 OA
ENDROOT
BRANCH  14  15
ATOM     15  C   UNL     1      46.403  16.559  18.770  0.00  0.00    +0.141 A 
ATOM     16  C   UNL     1      45.903  15.617  19.666  0.00  0.00    +0.010 A 
ATOM     17  C   UNL     1      45.707  14.325  19.270  0.00  0.00    -0.025 A 
ATOM     18  C   UNL     1      45.166  13.313  20.247  0.00  0.00    +0.109 C 
ATOM     19  C   UNL     1      46.009  13.940  17.960  0.00  0.00    -0.146 A 
ATOM     24  C   UNL     1      46.513  14.886  17.055  0.00  0.00    +0.164 A 
ATOM     27  C   UNL     1      46.702  16.195  17.466  0.00  0.00    -0.111 A 
ATOM     28  C   UNL     1      47.238  17.220  16.501  0.00  0.00    +0.123 C 
BRANCH  19  20
ATOM     20  C   UNL     1      45.800  12.547  17.533  0.00  0.00    +0.531 C 
ATOM     23  O   UNL     1      44.775  12.236  16.956  0.00  0.00    -0.497 OA
BRANCH  20  21
ATOM     21  O   UNL     1      46.742  11.617  17.781  0.00  0.00    -0.342 OA
ATOM     22  C   UNL     1      47.434  11.078  16.652  0.00  0.00    +0.256 C 
ENDBRANCH  20  21
ENDBRANCH  19  20
BRANCH  24  25
ATOM     25  O   UNL     1      46.809  14.523  15.781  0.00  0.00    -0.486 OA
ATOM     26  H   UNL     1      47.431  13.785  15.718  0.00  0.00    +0.397 HD
ENDBRANCH  24  25
ENDBRANCH  14  15
BRANCH  14  13
ATOM     13  C   UNL     1      47.642  18.101  19.982  0.00  0.00    +0.565 C 
ATOM     29  O   UNL     1      47.489  18.128  21.187  0.00  0.00    -0.499 OA
BRANCH  13  12
ATOM      1  C   UNL     1      49.571  15.958  19.885  0.00  0.00    +0.081 C 
ATOM      2  C   UNL     1      49.918  17.323  19.348  0.00  0.00    +0.047 A 
ATOM      3  C   UNL     1      51.162  17.548  18.804  0.00  0.00    -0.171 A 
ATOM      4  C   UNL     1      51.496  18.801  18.305  0.00  0.00    +0.236 A 
ATOM      7  C   UNL     1      50.561  19.851  18.355  0.00  0.00    -0.364 A 
ATOM     10  C   UNL     1      49.293  19.624  18.910  0.00  0.00    +0.355 A 
ATOM     11  O   UNL     1      48.384  20.627  18.965  0.00  0.00    -0.676 OA
ATOM     12  C   UNL     1      48.971  18.352  19.403  0.00  0.00    -0.286 A 
BRANCH   4   5
ATOM      5  O   UNL     1      52.723  19.010  17.771  0.00  0.00    -0.491 OA
ATOM      6  H   UNL     1      53.420  18.468  18.163  0.00  0.00    +0.387 HD
ENDBRANCH   4   5
BRANCH   7   8
ATOM      8  C   UNL     1      50.912  21.173  17.831  0.00  0.00    +0.491 C 
ATOM      9  O   UNL     1      51.346  21.284  16.704  0.00  0.00    -0.505 OA
ENDBRANCH   7   8
ENDBRANCH  13  12
ENDBRANCH  14  13
TORSDOF 8
ENDMDL
MODEL 9
REMARK VINA RESULT:      -5.3      3.511      5.075
REMARK  Name = ZINC00608186
REMARK  12 active torsions:
REMARK  status: ('A' for Active; 'I' for Inactive)
REMARK    1  A    between atoms: C1_1  and  C2_2
REMARK    2  A    between atoms: C4_4  and  O8_27
REMARK    3  A    between atoms: C5_5  and  C19_25
REMARK    4  A    between atoms: C7_7  and  C8_8
REMARK    5  A    between atoms: C8_8  and  O2_10
REMARK    6  A    between atoms: O2_10  and  C9_11
REMARK    7  A    between atoms: C11_13  and  C18_23
REMARK    8  A    between atoms: C12_14  and  C16_19
REMARK    9  A    between atoms: C13_15  and  O3_18
REMARK   10  A    between atoms: C14_16  and  C15_17
REMARK   11  A    between atoms: C16_19  and  O5_21
REMARK   12  A    between atoms: O5_21  and  C17_22
REMARK                            x       y       z     vdW  Elec       q    Type
REMARK                         _______ _______ _______ _____ _____    ______ ____
ROOT
ATOM     14  O   UNL     1      47.177  17.283  20.543  0.00  0.00    -0.294 OA
ENDROOT
BRANCH  14  15
ATOM     15  C   UNL     1      48.251  17.764  19.866  0.00  0.00    +0.141 A 
ATOM     16  C   UNL     1      48.882  16.968  18.913  0.00  0.00    +0.010 A 
ATOM     17  C   UNL     1      49.962  17.441  18.225  0.00  0.00    -0.025 A 
ATOM     18  C   UNL     1      50.639  16.571  17.197  0.00  0.00    +0.109 C 
ATOM     19  C   UNL     1      50.443  18.731  18.475  0.00  0.00    -0.146 A 
ATOM     24  C   UNL     1      49.809  19.536  19.433  0.00  0.00    +0.164 A 
ATOM     27  C   UNL     1      48.710  19.047  20.121  0.00  0.00    -0.111 A 
ATOM     28  C   UNL     1      48.020  19.905  21.149  0.00  0.00    +0.123 C 
BRANCH  19  20
ATOM     20  C   UNL     1      51.608  19.241  17.735  0.00  0.00    +0.531 C 
ATOM     23  O   UNL     1      52.714  19.201  18.240  0.00  0.00    -0.497 OA
BRANCH  20  21
ATOM     21  O   UNL     1      51.451  19.751  16.498  0.00  0.00    -0.342 OA
ATOM     22  C   UNL     1      51.559  21.169  16.363  0.00  0.00    +0.256 C 
ENDBRANCH  20  21
ENDBRANCH  19  20
BRANCH  24  25
ATOM     25  O   UNL     1      50.267  20.788  19.683  0.00  0.00    -0.486 OA
ATOM     26  H   UNL     1      49.666  21.490  19.399  0.00  0.00    +0.397 HD
ENDBRANCH  24  25
ENDBRANCH  14  15
BRANCH  14  13
ATOM     13  C   UNL     1      46.052  17.025  19.845  0.00  0.00    +0.565 C 
ATOM     29  O   UNL     1      45.928  15.967  19.260  0.00  0.00    -0.499 OA
BRANCH  13  12
ATOM      1  C   UNL     1      46.046  18.990  17.731  0.00  0.00    +0.081 C 
ATOM      2  C   UNL     1      44.956  18.985  18.773  0.00  0.00    +0.047 A 
ATOM      3  C   UNL     1      43.949  19.921  18.714  0.00  0.00    -0.171 A 
ATOM      4  C   UNL     1      42.938  19.929  19.666  0.00  0.00    +0.236 A 
ATOM      7  C   UNL     1      42.939  18.977  20.703  0.00  0.00    -0.364 A 
ATOM     10  C   UNL     1      43.965  18.022  20.766  0.00  0.00    +0.355 A 
ATOM     11  O   UNL     1      43.978  17.101  21.758  0.00  0.00    -0.676 OA
ATOM     12  C   UNL     1      44.973  18.026  19.792  0.00  0.00    -0.286 A 
BRANCH   4   5
ATOM      5  O   UNL     1      41.952  20.854  19.598  0.00  0.00    -0.491 OA
ATOM      6  H   UNL     1      41.187  20.656  20.156  0.00  0.00    +0.387 HD
ENDBRANCH   4   5
BRANCH   7   8
ATOM      8  C   UNL     1      41.875  18.985  21.709  0.00  0.00    +0.491 C 
ATOM      9  O   UNL     1      40.714  19.044  21.365  0.00  0.00    -0.505 OA
ENDBRANCH   7   8
ENDBRANCH  13  12
ENDBRANCH  14  13
TORSDOF 8
ENDMDL
