MODEL 1
REMARK VINA RESULT:      -7.3      0.000      0.000
REMARK  Name = ZINC00134782
REMARK  3 active torsions:
REMARK  status: ('A' for Active; 'I' for Inactive)
REMARK    1  A    between atoms: C1_1  and  C2_2
REMARK    2  A    between atoms: C2_2  and  C22_26
REMARK    3  A    between atoms: C9_10  and  C16_20
REMARK                            x       y       z     vdW  Elec       q    Type
REMARK                         _______ _______ _______ _____ _____    ______ ____
ROOT
ATOM      1  C   UNL     1      51.105  20.379  17.092  0.00  0.00    +0.035 C 
ATOM      2  C   UNL     1      51.229  19.723  18.468  0.00  0.00    +0.142 C 
ATOM      3  C   UNL     1      52.691  19.349  18.721  0.00  0.00    +0.089 C 
ATOM      4  C   UNL     1      50.777  20.697  19.526  0.00  0.00    -0.035 C 
ATOM      5  C   UNL     1      49.494  20.738  19.884  0.00  0.00    +0.068 C 
ATOM      6  C   UNL     1      48.556  19.806  19.229  0.00  0.00    -0.031 A 
ATOM      7  C   UNL     1      47.162  20.009  19.285  0.00  0.00    -0.196 A 
ATOM      8  C   UNL     1      46.586  21.161  19.999  0.00  0.00    +0.428 A 
ATOM      9  C   UNL     1      45.174  21.281  19.999  0.00  0.00    -0.146 A 
ATOM     10  C   UNL     1      44.429  20.345  19.354  0.00  0.00    +0.207 A 
ATOM     17  O   UNL     1      44.963  19.300  18.710  0.00  0.00    -0.203 OA
ATOM     18  O   UNL     1      47.293  21.978  20.565  0.00  0.00    -0.466 OA
ATOM     19  C   UNL     1      46.295  19.109  18.657  0.00  0.00    +0.173 A 
ATOM     20  C   UNL     1      46.833  18.007  17.973  0.00  0.00    -0.124 A 
ATOM     21  C   UNL     1      46.244  16.893  17.222  0.00  0.00    -0.024 A 
ATOM     22  C   UNL     1      47.272  16.148  16.791  0.00  0.00    +0.235 A 
ATOM     23  O   UNL     1      48.434  16.686  17.198  0.00  0.00    -0.171 OA
ATOM     24  C   UNL     1      48.220  17.809  17.914  0.00  0.00    +0.091 A 
ATOM     25  C   UNL     1      49.078  18.711  18.544  0.00  0.00    +0.124 A 
ATOM     26  O   UNL     1      50.425  18.543  18.504  0.00  0.00    -0.293 OA
ENDROOT
BRANCH  10  11
ATOM     11  C   UNL     1      42.959  20.487  19.367  0.00  0.00    -0.076 A 
ATOM     12  C   UNL     1      42.360  21.627  18.827  0.00  0.00    +0.057 A 
ATOM     13  C   UNL     1      40.987  21.752  18.841  0.00  0.00    +0.014 A 
ATOM     14  C   UNL     1      40.203  20.752  19.389  0.00  0.00    +0.038 A 
ATOM     15  C   UNL     1      40.790  19.620  19.925  0.00  0.00    +0.009 A 
ATOM     16  C   UNL     1      42.162  19.478  19.913  0.00  0.00    +0.055 A 
ENDBRANCH  10  11
TORSDOF 1
ENDMDL
MODEL 2
REMARK VINA RESULT:      -6.7      3.176      5.594
REMARK  Name = ZINC00134782
REMARK  3 active torsions:
REMARK  status: ('A' for Active; 'I' for Inactive)
REMARK    1  A    between atoms: C1_1  and  C2_2
REMARK    2  A    between atoms: C2_2  and  C22_26
REMARK    3  A    between atoms: C9_10  and  C16_20
REMARK                            x       y       z     vdW  Elec       q    Type
REMARK                         _______ _______ _______ _____ _____    ______ ____
ROOT
ATOM      1  C   UNL     1      45.103  12.246  17.321  0.00  0.00    +0.035 C 
ATOM      2  C   UNL     1      46.553  12.463  17.758  0.00  0.00    +0.142 C 
ATOM      3  C   UNL     1      47.314  11.139  17.660  0.00  0.00    +0.089 C 
ATOM      4  C   UNL     1      47.201  13.474  16.848  0.00  0.00    -0.035 C 
ATOM      5  C   UNL     1      47.131  14.772  17.143  0.00  0.00    +0.068 C 
ATOM      6  C   UNL     1      46.420  15.170  18.375  0.00  0.00    -0.031 A 
ATOM      7  C   UNL     1      46.002  16.500  18.582  0.00  0.00    -0.196 A 
ATOM      8  C   UNL     1      46.256  17.547  17.576  0.00  0.00    +0.428 A 
ATOM      9  C   UNL     1      45.797  18.853  17.874  0.00  0.00    -0.146 A 
ATOM     10  C   UNL     1      45.157  19.079  19.051  0.00  0.00    +0.207 A 
ATOM     17  O   UNL     1      44.933  18.122  19.959  0.00  0.00    -0.203 OA
ATOM     18  O   UNL     1      46.836  17.298  16.532  0.00  0.00    -0.466 OA
ATOM     19  C   UNL     1      45.333  16.852  19.758  0.00  0.00    +0.173 A 
ATOM     20  C   UNL     1      45.084  15.862  20.723  0.00  0.00    -0.124 A 
ATOM     21  C   UNL     1      44.430  15.868  22.036  0.00  0.00    -0.024 A 
ATOM     22  C   UNL     1      44.496  14.609  22.492  0.00  0.00    +0.235 A 
ATOM     23  O   UNL     1      45.123  13.827  21.598  0.00  0.00    -0.171 OA
ATOM     24  C   UNL     1      45.497  14.539  20.514  0.00  0.00    +0.091 A 
ATOM     25  C   UNL     1      46.165  14.197  19.339  0.00  0.00    +0.124 A 
ATOM     26  O   UNL     1      46.577  12.923  19.110  0.00  0.00    -0.293 OA
ENDROOT
BRANCH  10  11
ATOM     11  C   UNL     1      44.687  20.449  19.343  0.00  0.00    -0.076 A 
ATOM     12  C   UNL     1      43.331  20.764  19.231  0.00  0.00    +0.057 A 
ATOM     13  C   UNL     1      42.899  22.044  19.505  0.00  0.00    +0.014 A 
ATOM     14  C   UNL     1      43.806  23.016  19.893  0.00  0.00    +0.038 A 
ATOM     15  C   UNL     1      45.150  22.710  20.006  0.00  0.00    +0.009 A 
ATOM     16  C   UNL     1      45.596  21.432  19.740  0.00  0.00    +0.055 A 
ENDBRANCH  10  11
TORSDOF 1
ENDMDL
MODEL 3
REMARK VINA RESULT:      -6.5      2.336      4.776
REMARK  Name = ZINC00134782
REMARK  3 active torsions:
REMARK  status: ('A' for Active; 'I' for Inactive)
REMARK    1  A    between atoms: C1_1  and  C2_2
REMARK    2  A    between atoms: C2_2  and  C22_26
REMARK    3  A    between atoms: C9_10  and  C16_20
REMARK                            x       y       z     vdW  Elec       q    Type
REMARK                         _______ _______ _______ _____ _____    ______ ____
ROOT
ATOM      1  C   UNL     1      50.829  14.158  18.523  0.00  0.00    +0.035 C 
ATOM      2  C   UNL     1      50.535  14.525  17.067  0.00  0.00    +0.142 C 
ATOM      3  C   UNL     1      51.192  13.498  16.143  0.00  0.00    +0.089 C 
ATOM      4  C   UNL     1      49.045  14.512  16.842  0.00  0.00    -0.035 C 
ATOM      5  C   UNL     1      48.333  15.619  17.054  0.00  0.00    +0.068 C 
ATOM      6  C   UNL     1      49.045  16.834  17.497  0.00  0.00    -0.031 A 
ATOM      7  C   UNL     1      48.355  17.921  18.067  0.00  0.00    -0.196 A 
ATOM      8  C   UNL     1      46.893  17.889  18.248  0.00  0.00    +0.428 A 
ATOM      9  C   UNL     1      46.289  19.029  18.831  0.00  0.00    -0.146 A 
ATOM     10  C   UNL     1      47.069  20.082  19.192  0.00  0.00    +0.207 A 
ATOM     17  O   UNL     1      48.396  20.102  19.021  0.00  0.00    -0.203 OA
ATOM     18  O   UNL     1      46.231  16.921  17.910  0.00  0.00    -0.466 OA
ATOM     19  C   UNL     1      49.054  19.061  18.476  0.00  0.00    +0.173 A 
ATOM     20  C   UNL     1      50.448  19.104  18.310  0.00  0.00    -0.124 A 
ATOM     21  C   UNL     1      51.475  20.106  18.613  0.00  0.00    -0.024 A 
ATOM     22  C   UNL     1      52.643  19.572  18.226  0.00  0.00    +0.235 A 
ATOM     23  O   UNL     1      52.443  18.345  17.716  0.00  0.00    -0.171 OA
ATOM     24  C   UNL     1      51.134  18.019  17.745  0.00  0.00    +0.091 A 
ATOM     25  C   UNL     1      50.429  16.886  17.340  0.00  0.00    +0.124 A 
ATOM     26  O   UNL     1      51.068  15.821  16.789  0.00  0.00    -0.293 OA
ENDROOT
BRANCH  10  11
ATOM     11  C   UNL     1      46.420  21.263  19.798  0.00  0.00    -0.076 A 
ATOM     12  C   UNL     1      46.940  21.827  20.964  0.00  0.00    +0.057 A 
ATOM     13  C   UNL     1      46.329  22.929  21.525  0.00  0.00    +0.014 A 
ATOM     14  C   UNL     1      45.204  23.476  20.933  0.00  0.00    +0.038 A 
ATOM     15  C   UNL     1      44.683  22.921  19.777  0.00  0.00    +0.009 A 
ATOM     16  C   UNL     1      45.287  21.822  19.203  0.00  0.00    +0.055 A 
ENDBRANCH  10  11
TORSDOF 1
ENDMDL
MODEL 4
REMARK VINA RESULT:      -6.2      3.194      7.406
REMARK  Name = ZINC00134782
REMARK  3 active torsions:
REMARK  status: ('A' for Active; 'I' for Inactive)
REMARK    1  A    between atoms: C1_1  and  C2_2
REMARK    2  A    between atoms: C2_2  and  C22_26
REMARK    3  A    between atoms: C9_10  and  C16_20
REMARK                            x       y       z     vdW  Elec       q    Type
REMARK                         _______ _______ _______ _____ _____    ______ ____
ROOT
ATOM      1  C   UNL     1      45.065  13.241  20.039  0.00  0.00    +0.035 C 
ATOM      2  C   UNL     1      45.515  13.761  21.407  0.00  0.00    +0.142 C 
ATOM      3  C   UNL     1      44.741  13.029  22.505  0.00  0.00    +0.089 C 
ATOM      4  C   UNL     1      46.989  13.497  21.579  0.00  0.00    -0.035 C 
ATOM      5  C   UNL     1      47.876  14.402  21.169  0.00  0.00    +0.068 C 
ATOM      6  C   UNL     1      47.372  15.650  20.562  0.00  0.00    -0.031 A 
ATOM      7  C   UNL     1      48.212  16.487  19.802  0.00  0.00    -0.196 A 
ATOM      8  C   UNL     1      49.629  16.149  19.579  0.00  0.00    +0.428 A 
ATOM      9  C   UNL     1      50.393  17.051  18.799  0.00  0.00    -0.146 A 
ATOM     10  C   UNL     1      49.798  18.168  18.303  0.00  0.00    +0.207 A 
ATOM     17  O   UNL     1      48.511  18.467  18.513  0.00  0.00    -0.203 OA
ATOM     18  O   UNL     1      50.122  15.134  20.044  0.00  0.00    -0.466 OA
ATOM     19  C   UNL     1      47.710  17.665  19.240  0.00  0.00    +0.173 A 
ATOM     20  C   UNL     1      46.361  17.997  19.445  0.00  0.00    -0.124 A 
ATOM     21  C   UNL     1      45.517  19.120  19.022  0.00  0.00    -0.024 A 
ATOM     22  C   UNL     1      44.298  18.884  19.529  0.00  0.00    +0.235 A 
ATOM     23  O   UNL     1      44.302  17.733  20.221  0.00  0.00    -0.171 OA
ATOM     24  C   UNL     1      45.524  17.161  20.200  0.00  0.00    +0.091 A 
ATOM     25  C   UNL     1      46.034  15.989  20.756  0.00  0.00    +0.124 A 
ATOM     26  O   UNL     1      45.248  15.161  21.492  0.00  0.00    -0.293 OA
ENDROOT
BRANCH  10  11
ATOM     11  C   UNL     1      50.613  19.097  17.493  0.00  0.00    -0.076 A 
ATOM     12  C   UNL     1      51.374  18.615  16.426  0.00  0.00    +0.057 A 
ATOM     13  C   UNL     1      52.132  19.488  15.675  0.00  0.00    +0.014 A 
ATOM     14  C   UNL     1      52.138  20.839  15.976  0.00  0.00    +0.038 A 
ATOM     15  C   UNL     1      51.386  21.323  17.031  0.00  0.00    +0.009 A 
ATOM     16  C   UNL     1      50.620  20.462  17.788  0.00  0.00    +0.055 A 
ENDBRANCH  10  11
TORSDOF 1
ENDMDL
MODEL 5
REMARK VINA RESULT:      -6.2      3.611      5.897
REMARK  Name = ZINC00134782
REMARK  3 active torsions:
REMARK  status: ('A' for Active; 'I' for Inactive)
REMARK    1  A    between atoms: C1_1  and  C2_2
REMARK    2  A    between atoms: C2_2  and  C22_26
REMARK    3  A    between atoms: C9_10  and  C16_20
REMARK                            x       y       z     vdW  Elec       q    Type
REMARK                         _______ _______ _______ _____ _____    ______ ____
ROOT
ATOM      1  C   UNL     1      50.186  12.826  13.441  0.00  0.00    +0.035 C 
ATOM      2  C   UNL     1      50.843  12.424  14.763  0.00  0.00    +0.142 C 
ATOM      3  C   UNL     1      51.916  11.366  14.494  0.00  0.00    +0.089 C 
ATOM      4  C   UNL     1      51.487  13.635  15.387  0.00  0.00    -0.035 C 
ATOM      5  C   UNL     1      50.781  14.412  16.207  0.00  0.00    +0.068 C 
ATOM      6  C   UNL     1      49.379  14.043  16.484  0.00  0.00    -0.031 A 
ATOM      7  C   UNL     1      48.474  14.968  17.043  0.00  0.00    -0.196 A 
ATOM      8  C   UNL     1      48.891  16.342  17.371  0.00  0.00    +0.428 A 
ATOM      9  C   UNL     1      47.911  17.199  17.928  0.00  0.00    -0.146 A 
ATOM     10  C   UNL     1      46.653  16.725  18.132  0.00  0.00    +0.207 A 
ATOM     17  O   UNL     1      46.285  15.474  17.832  0.00  0.00    -0.203 OA
ATOM     18  O   UNL     1      50.032  16.726  17.171  0.00  0.00    -0.466 OA
ATOM     19  C   UNL     1      47.151  14.593  17.297  0.00  0.00    +0.173 A 
ATOM     20  C   UNL     1      46.742  13.285  16.987  0.00  0.00    -0.124 A 
ATOM     21  C   UNL     1      45.471  12.564  17.116  0.00  0.00    -0.024 A 
ATOM     22  C   UNL     1      45.694  11.328  16.646  0.00  0.00    +0.235 A 
ATOM     23  O   UNL     1      46.970  11.211  16.241  0.00  0.00    -0.171 OA
ATOM     24  C   UNL     1      47.642  12.367  16.428  0.00  0.00    +0.091 A 
ATOM     25  C   UNL     1      48.959  12.750  16.178  0.00  0.00    +0.124 A 
ATOM     26  O   UNL     1      49.853  11.881  15.638  0.00  0.00    -0.293 OA
ENDROOT
BRANCH  10  11
ATOM     11  C   UNL     1      45.646  17.635  18.714  0.00  0.00    -0.076 A 
ATOM     12  C   UNL     1      45.428  18.894  18.151  0.00  0.00    +0.057 A 
ATOM     13  C   UNL     1      44.485  19.737  18.699  0.00  0.00    +0.014 A 
ATOM     14  C   UNL     1      43.755  19.338  19.805  0.00  0.00    +0.038 A 
ATOM     15  C   UNL     1      43.966  18.092  20.368  0.00  0.00    +0.009 A 
ATOM     16  C   UNL     1      44.902  17.236  19.827  0.00  0.00    +0.055 A 
ENDBRANCH  10  11
TORSDOF 1
ENDMDL
MODEL 6
REMARK VINA RESULT:      -6.2      1.815      7.701
REMARK  Name = ZINC00134782
REMARK  3 active torsions:
REMARK  status: ('A' for Active; 'I' for Inactive)
REMARK    1  A    between atoms: C1_1  and  C2_2
REMARK    2  A    between atoms: C2_2  and  C22_26
REMARK    3  A    between atoms: C9_10  and  C16_20
REMARK                            x       y       z     vdW  Elec       q    Type
REMARK                         _______ _______ _______ _____ _____    ______ ____
ROOT
ATOM      1  C   UNL     1      41.895  19.761  19.249  0.00  0.00    +0.035 C 
ATOM      2  C   UNL     1      42.216  19.172  20.624  0.00  0.00    +0.142 C 
ATOM      3  C   UNL     1      40.910  18.892  21.372  0.00  0.00    +0.089 C 
ATOM      4  C   UNL     1      42.973  17.881  20.449  0.00  0.00    -0.035 C 
ATOM      5  C   UNL     1      44.303  17.898  20.370  0.00  0.00    +0.068 C 
ATOM      6  C   UNL     1      44.992  19.200  20.470  0.00  0.00    -0.031 A 
ATOM      7  C   UNL     1      46.331  19.354  20.059  0.00  0.00    -0.196 A 
ATOM      8  C   UNL     1      47.097  18.222  19.509  0.00  0.00    +0.428 A 
ATOM      9  C   UNL     1      48.435  18.476  19.122  0.00  0.00    -0.146 A 
ATOM     10  C   UNL     1      48.944  19.727  19.272  0.00  0.00    +0.207 A 
ATOM     17  O   UNL     1      48.240  20.748  19.775  0.00  0.00    -0.203 OA
ATOM     18  O   UNL     1      46.599  17.115  19.391  0.00  0.00    -0.466 OA
ATOM     19  C   UNL     1      46.961  20.598  20.167  0.00  0.00    +0.173 A 
ATOM     20  C   UNL     1      46.240  21.685  20.688  0.00  0.00    -0.124 A 
ATOM     21  C   UNL     1      46.569  23.092  20.941  0.00  0.00    -0.024 A 
ATOM     22  C   UNL     1      45.462  23.648  21.454  0.00  0.00    +0.235 A 
ATOM     23  O   UNL     1      44.484  22.731  21.544  0.00  0.00    -0.171 OA
ATOM     24  C   UNL     1      44.906  21.531  21.094  0.00  0.00    +0.091 A 
ATOM     25  C   UNL     1      44.286  20.287  20.983  0.00  0.00    +0.124 A 
ATOM     26  O   UNL     1      42.996  20.108  21.370  0.00  0.00    -0.293 OA
ENDROOT
BRANCH  10  11
ATOM     11  C   UNL     1      50.343  19.971  18.863  0.00  0.00    -0.076 A 
ATOM     12  C   UNL     1      51.148  20.839  19.603  0.00  0.00    +0.057 A 
ATOM     13  C   UNL     1      52.453  21.061  19.216  0.00  0.00    +0.014 A 
ATOM     14  C   UNL     1      52.964  20.426  18.098  0.00  0.00    +0.038 A 
ATOM     15  C   UNL     1      52.171  19.565  17.360  0.00  0.00    +0.009 A 
ATOM     16  C   UNL     1      50.866  19.329  17.739  0.00  0.00    +0.055 A 
ENDBRANCH  10  11
TORSDOF 1
ENDMDL
MODEL 7
REMARK VINA RESULT:      -6.0      2.103      2.401
REMARK  Name = ZINC00134782
REMARK  3 active torsions:
REMARK  status: ('A' for Active; 'I' for Inactive)
REMARK    1  A    between atoms: C1_1  and  C2_2
REMARK    2  A    between atoms: C2_2  and  C22_26
REMARK    3  A    between atoms: C9_10  and  C16_20
REMARK                            x       y       z     vdW  Elec       q    Type
REMARK                         _______ _______ _______ _____ _____    ______ ____
ROOT
ATOM      1  C   UNL     1      50.100  16.236  17.125  0.00  0.00    +0.035 C 
ATOM      2  C   UNL     1      50.494  16.700  18.529  0.00  0.00    +0.142 C 
ATOM      3  C   UNL     1      51.926  16.250  18.828  0.00  0.00    +0.089 C 
ATOM      4  C   UNL     1      50.425  18.204  18.594  0.00  0.00    -0.035 C 
ATOM      5  C   UNL     1      49.283  18.801  18.936  0.00  0.00    +0.068 C 
ATOM      6  C   UNL     1      48.119  17.950  19.254  0.00  0.00    -0.031 A 
ATOM      7  C   UNL     1      46.813  18.478  19.283  0.00  0.00    -0.196 A 
ATOM      8  C   UNL     1      46.556  19.900  18.996  0.00  0.00    +0.428 A 
ATOM      9  C   UNL     1      45.209  20.336  19.050  0.00  0.00    -0.146 A 
ATOM     10  C   UNL     1      44.233  19.442  19.358  0.00  0.00    +0.207 A 
ATOM     17  O   UNL     1      44.478  18.153  19.619  0.00  0.00    -0.203 OA
ATOM     18  O   UNL     1      47.463  20.668  18.723  0.00  0.00    -0.466 OA
ATOM     19  C   UNL     1      45.727  17.651  19.589  0.00  0.00    +0.173 A 
ATOM     20  C   UNL     1      45.959  16.294  19.864  0.00  0.00    -0.124 A 
ATOM     21  C   UNL     1      45.089  15.166  20.214  0.00  0.00    -0.024 A 
ATOM     22  C   UNL     1      45.893  14.103  20.356  0.00  0.00    +0.235 A 
ATOM     23  O   UNL     1      47.170  14.456  20.131  0.00  0.00    -0.171 OA
ATOM     24  C   UNL     1      47.260  15.769  19.831  0.00  0.00    +0.091 A 
ATOM     25  C   UNL     1      48.337  16.601  19.525  0.00  0.00    +0.124 A 
ATOM     26  O   UNL     1      49.606  16.120  19.486  0.00  0.00    -0.293 OA
ENDROOT
BRANCH  10  11
ATOM     11  C   UNL     1      42.836  19.918  19.409  0.00  0.00    -0.076 A 
ATOM     12  C   UNL     1      42.470  21.093  18.750  0.00  0.00    +0.057 A 
ATOM     13  C   UNL     1      41.164  21.531  18.802  0.00  0.00    +0.014 A 
ATOM     14  C   UNL     1      40.216  20.808  19.504  0.00  0.00    +0.038 A 
ATOM     15  C   UNL     1      40.571  19.642  20.159  0.00  0.00    +0.009 A 
ATOM     16  C   UNL     1      41.873  19.190  20.112  0.00  0.00    +0.055 A 
ENDBRANCH  10  11
TORSDOF 1
ENDMDL
MODEL 8
REMARK VINA RESULT:      -5.9      4.128      6.250
REMARK  Name = ZINC00134782
REMARK  3 active torsions:
REMARK  status: ('A' for Active; 'I' for Inactive)
REMARK    1  A    between atoms: C1_1  and  C2_2
REMARK    2  A    between atoms: C2_2  and  C22_26
REMARK    3  A    between atoms: C9_10  and  C16_20
REMARK                            x       y       z     vdW  Elec       q    Type
REMARK                         _______ _______ _______ _____ _____    ______ ____
ROOT
ATOM      1  C   UNL     1      52.026  20.730  17.541  0.00  0.00    +0.035 C 
ATOM      2  C   UNL     1      51.453  20.658  18.958  0.00  0.00    +0.142 C 
ATOM      3  C   UNL     1      52.015  21.813  19.791  0.00  0.00    +0.089 C 
ATOM      4  C   UNL     1      49.953  20.776  18.896  0.00  0.00    -0.035 C 
ATOM      5  C   UNL     1      49.206  19.681  18.755  0.00  0.00    +0.068 C 
ATOM      6  C   UNL     1      49.890  18.376  18.677  0.00  0.00    -0.031 A 
ATOM      7  C   UNL     1      49.229  17.230  18.191  0.00  0.00    -0.196 A 
ATOM      8  C   UNL     1      47.829  17.290  17.738  0.00  0.00    +0.428 A 
ATOM      9  C   UNL     1      47.251  16.087  17.265  0.00  0.00    -0.146 A 
ATOM     10  C   UNL     1      47.999  14.952  17.250  0.00  0.00    +0.207 A 
ATOM     17  O   UNL     1      49.270  14.908  17.666  0.00  0.00    -0.203 OA
ATOM     18  O   UNL     1      47.194  18.331  17.769  0.00  0.00    -0.466 OA
ATOM     19  C   UNL     1      49.900  16.004  18.129  0.00  0.00    +0.173 A 
ATOM     20  C   UNL     1      51.236  15.935  18.557  0.00  0.00    -0.124 A 
ATOM     21  C   UNL     1      52.221  14.851  18.634  0.00  0.00    -0.024 A 
ATOM     22  C   UNL     1      53.340  15.398  19.130  0.00  0.00    +0.235 A 
ATOM     23  O   UNL     1      53.149  16.706  19.367  0.00  0.00    -0.171 OA
ATOM     24  C   UNL     1      51.894  17.077  19.038  0.00  0.00    +0.091 A 
ATOM     25  C   UNL     1      51.218  18.295  19.096  0.00  0.00    +0.124 A 
ATOM     26  O   UNL     1      51.829  19.416  19.558  0.00  0.00    -0.293 OA
ENDROOT
BRANCH  10  11
ATOM     11  C   UNL     1      47.378  13.707  16.754  0.00  0.00    -0.076 A 
ATOM     12  C   UNL     1      46.213  13.219  17.350  0.00  0.00    +0.057 A 
ATOM     13  C   UNL     1      45.639  12.056  16.881  0.00  0.00    +0.014 A 
ATOM     14  C   UNL     1      46.213  11.375  15.822  0.00  0.00    +0.038 A 
ATOM     15  C   UNL     1      47.366  11.854  15.227  0.00  0.00    +0.009 A 
ATOM     16  C   UNL     1      47.949  13.018  15.682  0.00  0.00    +0.055 A 
ENDBRANCH  10  11
TORSDOF 1
ENDMDL
MODEL 9
REMARK VINA RESULT:      -5.9      2.639      6.728
REMARK  Name = ZINC00134782
REMARK  3 active torsions:
REMARK  status: ('A' for Active; 'I' for Inactive)
REMARK    1  A    between atoms: C1_1  and  C2_2
REMARK    2  A    between atoms: C2_2  and  C22_26
REMARK    3  A    between atoms: C9_10  and  C16_20
REMARK                            x       y       z     vdW  Elec       q    Type
REMARK                         _______ _______ _______ _____ _____    ______ ____
ROOT
ATOM      1  C   UNL     1      46.140  21.401  18.796  0.00  0.00    +0.035 C 
ATOM      2  C   UNL     1      46.691  20.863  20.118  0.00  0.00    +0.142 C 
ATOM      3  C   UNL     1      46.783  22.006  21.131  0.00  0.00    +0.089 C 
ATOM      4  C   UNL     1      45.760  19.804  20.651  0.00  0.00    -0.035 C 
ATOM      5  C   UNL     1      45.930  18.532  20.294  0.00  0.00    +0.068 C 
ATOM      6  C   UNL     1      47.048  18.204  19.387  0.00  0.00    -0.031 A 
ATOM      7  C   UNL     1      47.095  16.977  18.696  0.00  0.00    -0.196 A 
ATOM      8  C   UNL     1      46.029  15.972  18.848  0.00  0.00    +0.428 A 
ATOM      9  C   UNL     1      46.165  14.770  18.111  0.00  0.00    -0.146 A 
ATOM     10  C   UNL     1      47.251  14.600  17.312  0.00  0.00    +0.207 A 
ATOM     17  O   UNL     1      48.215  15.519  17.183  0.00  0.00    -0.203 OA
ATOM     18  O   UNL     1      45.071  16.167  19.577  0.00  0.00    -0.466 OA
ATOM     19  C   UNL     1      48.167  16.691  17.844  0.00  0.00    +0.173 A 
ATOM     20  C   UNL     1      49.189  17.642  17.690  0.00  0.00    -0.124 A 
ATOM     21  C   UNL     1      50.429  17.681  16.906  0.00  0.00    -0.024 A 
ATOM     22  C   UNL     1      51.000  18.866  17.168  0.00  0.00    +0.235 A 
ATOM     23  O   UNL     1      50.242  19.562  18.032  0.00  0.00    -0.171 OA
ATOM     24  C   UNL     1      49.139  18.864  18.376  0.00  0.00    +0.091 A 
ATOM     25  C   UNL     1      48.067  19.141  19.224  0.00  0.00    +0.124 A 
ATOM     26  O   UNL     1      47.993  20.316  19.902  0.00  0.00    -0.293 OA
ENDROOT
BRANCH  10  11
ATOM     11  C   UNL     1      47.374  13.340  16.553  0.00  0.00    -0.076 A 
ATOM     12  C   UNL     1      46.447  12.313  16.743  0.00  0.00    +0.057 A 
ATOM     13  C   UNL     1      46.568  11.139  16.030  0.00  0.00    +0.014 A 
ATOM     14  C   UNL     1      47.604  10.977  15.128  0.00  0.00    +0.038 A 
ATOM     15  C   UNL     1      48.526  11.990  14.934  0.00  0.00    +0.009 A 
ATOM     16  C   UNL     1      48.415  13.172  15.637  0.00  0.00    +0.055 A 
ENDBRANCH  10  11
TORSDOF 1
ENDMDL
