MODEL 1
REMARK VINA RESULT:      -5.9      0.000      0.000
REMARK  Name = ZINC95486039
REMARK  14 active torsions:
REMARK  status: ('A' for Active; 'I' for Inactive)
REMARK    1  A    between atoms: C1_1  and  C2_2
REMARK    2  A    between atoms: C2_2  and  C3_3
REMARK    3  A    between atoms: C5_8  and  C25_40
REMARK    4  A    between atoms: C6_9  and  O11_39
REMARK    5  A    between atoms: C9_12  and  C24_38
REMARK    6  A    between atoms: C13_19  and  C15_23
REMARK    7  A    between atoms: C15_23  and  O6_24
REMARK    8  A    between atoms: O6_24  and  C16_25
REMARK    9  A    between atoms: C16_25  and  C17_27
REMARK   10  A    between atoms: C18_28  and  O8_31
REMARK   11  A    between atoms: O8_31  and  C20_32
REMARK   12  A    between atoms: C20_32  and  C21_34
REMARK   13  A    between atoms: C21_34  and  C23_36
REMARK   14  A    between atoms: C23_36  and  O10_37
REMARK                            x       y       z     vdW  Elec       q    Type
REMARK                         _______ _______ _______ _____ _____    ______ ____
ROOT
ATOM      3  C   UNL     1      44.038  19.405  20.057  0.00  0.00    -0.055 C 
ATOM      4  C   UNL     1      44.311  20.787  19.502  0.00  0.00    +0.479 C 
ATOM      5  O   UNL     1      45.551  20.877  18.979  0.00  0.00    -0.336 OA
ATOM      6  C   UNL     1      46.355  19.911  19.756  0.00  0.00    +0.150 C 
ATOM      7  C   UNL     1      46.483  20.610  21.130  0.00  0.00    +0.062 C 
ATOM      8  C   UNL     1      47.711  19.799  19.133  0.00  0.00    +0.092 C 
ATOM      9  C   UNL     1      48.259  18.528  18.560  0.00  0.00    +0.255 C 
ATOM     18  C   UNL     1      49.594  18.151  19.152  0.00  0.00    -0.092 C 
ATOM     19  C   UNL     1      50.764  18.113  18.515  0.00  0.00    -0.166 C 
ATOM     25  C   UNL     1      51.813  17.748  19.476  0.00  0.00    +0.507 C 
ATOM     26  O   UNL     1      51.302  17.770  20.722  0.00  0.00    -0.303 OA
ATOM     27  O   UNL     1      52.963  17.488  19.193  0.00  0.00    -0.424 OA
ATOM     28  C   UNL     1      49.872  17.772  20.586  0.00  0.00    +0.259 C 
ATOM     29  C   UNL     1      49.316  16.390  20.932  0.00  0.00    +0.114 C 
ATOM     30  O   UNL     1      48.307  15.816  20.113  0.00  0.00    -0.301 OA
ATOM     31  C   UNL     1      47.842  16.323  21.359  0.00  0.00    +0.036 C 
ATOM     32  C   UNL     1      47.471  15.326  22.457  0.00  0.00    +0.097 C 
ATOM     33  C   UNL     1      47.114  17.667  21.405  0.00  0.00    +0.066 C 
ATOM     34  C   UNL     1      45.729  17.607  20.784  0.00  0.00    +0.042 C 
ATOM     35  O   UNL     1      43.515  21.692  19.522  0.00  0.00    -0.446 OA
ATOM     36  C   UNL     1      45.411  18.710  19.815  0.00  0.00    +0.152 C 
ENDROOT
BRANCH   3   2
ATOM      1  C   UNL     1      42.278  18.670  21.658  0.00  0.00    +0.027 C 
ATOM      2  C   UNL     1      43.576  19.466  21.503  0.00  0.00    +0.047 C 
ENDBRANCH   3   2
BRANCH  36  37
ATOM     37  O   UNL     1      45.219  18.158  18.483  0.00  0.00    -0.547 OA
ATOM     38  H   UNL     1      45.079  17.202  18.470  0.00  0.00    +0.376 HD
ENDBRANCH  36  37
BRANCH   9  10
ATOM     10  O   UNL     1      47.392  17.412  18.648  0.00  0.00    -0.288 OA
BRANCH  10  11
ATOM     11  C   UNL     1      47.148  16.736  17.508  0.00  0.00    +0.527 C 
ATOM     17  O   UNL     1      47.141  17.322  16.443  0.00  0.00    -0.508 OA
BRANCH  11  12
ATOM     12  C   UNL     1      46.891  15.290  17.553  0.00  0.00    -0.162 C 
ATOM     16  C   UNL     1      45.977  14.802  18.388  0.00  0.00    +0.187 C 
BRANCH  12  13
ATOM     13  C   UNL     1      47.662  14.359  16.652  0.00  0.00    +0.252 C 
BRANCH  13  14
ATOM     14  O   UNL     1      47.023  14.295  15.375  0.00  0.00    -0.570 OA
ATOM     15  H   UNL     1      47.581  13.929  14.675  0.00  0.00    +0.386 HD
ENDBRANCH  13  14
ENDBRANCH  12  13
ENDBRANCH  11  12
ENDBRANCH  10  11
ENDBRANCH   9  10
BRANCH  19  20
ATOM     20  C   UNL     1      50.997  18.396  17.053  0.00  0.00    +0.316 C 
BRANCH  20  21
ATOM     21  O   UNL     1      51.992  19.412  16.918  0.00  0.00    -0.348 OA
BRANCH  21  22
ATOM     22  C   UNL     1      51.579  20.686  17.019  0.00  0.00    +0.461 C 
ATOM     23  C   UNL     1      51.354  21.300  18.377  0.00  0.00    +0.164 C 
ATOM     24  O   UNL     1      51.387  21.339  16.021  0.00  0.00    -0.505 OA
ENDBRANCH  21  22
ENDBRANCH  20  21
ENDBRANCH  19  20
TORSDOF 10
ENDMDL
MODEL 2
REMARK VINA RESULT:      -5.5      2.193      7.309
REMARK  Name = ZINC95486039
REMARK  14 active torsions:
REMARK  status: ('A' for Active; 'I' for Inactive)
REMARK    1  A    between atoms: C1_1  and  C2_2
REMARK    2  A    between atoms: C2_2  and  C3_3
REMARK    3  A    between atoms: C5_8  and  C25_40
REMARK    4  A    between atoms: C6_9  and  O11_39
REMARK    5  A    between atoms: C9_12  and  C24_38
REMARK    6  A    between atoms: C13_19  and  C15_23
REMARK    7  A    between atoms: C15_23  and  O6_24
REMARK    8  A    between atoms: O6_24  and  C16_25
REMARK    9  A    between atoms: C16_25  and  C17_27
REMARK   10  A    between atoms: C18_28  and  O8_31
REMARK   11  A    between atoms: O8_31  and  C20_32
REMARK   12  A    between atoms: C20_32  and  C21_34
REMARK   13  A    between atoms: C21_34  and  C23_36
REMARK   14  A    between atoms: C23_36  and  O10_37
REMARK                            x       y       z     vdW  Elec       q    Type
REMARK                         _______ _______ _______ _____ _____    ______ ____
ROOT
ATOM      3  C   UNL     1      54.064  16.095  20.044  0.00  0.00    -0.055 C 
ATOM      4  C   UNL     1      53.740  14.717  19.507  0.00  0.00    +0.479 C 
ATOM      5  O   UNL     1      52.525  14.683  18.922  0.00  0.00    -0.336 OA
ATOM      6  C   UNL     1      51.740  15.713  19.633  0.00  0.00    +0.150 C 
ATOM      7  C   UNL     1      51.502  15.059  21.014  0.00  0.00    +0.062 C 
ATOM      8  C   UNL     1      50.427  15.885  18.936  0.00  0.00    +0.092 C 
ATOM      9  C   UNL     1      49.983  17.170  18.306  0.00  0.00    +0.255 C 
ATOM     18  C   UNL     1      48.644  17.637  18.818  0.00  0.00    -0.092 C 
ATOM     19  C   UNL     1      47.513  17.724  18.119  0.00  0.00    -0.166 C 
ATOM     25  C   UNL     1      46.438  18.174  19.015  0.00  0.00    +0.507 C 
ATOM     26  O   UNL     1      46.882  18.155  20.286  0.00  0.00    -0.303 OA
ATOM     27  O   UNL     1      45.321  18.491  18.666  0.00  0.00    -0.424 OA
ATOM     28  C   UNL     1      48.315  18.069  20.226  0.00  0.00    +0.259 C 
ATOM     29  C   UNL     1      48.931  19.425  20.569  0.00  0.00    +0.114 C 
ATOM     30  O   UNL     1      50.013  19.920  19.790  0.00  0.00    -0.301 OA
ATOM     31  C   UNL     1      50.383  19.421  21.071  0.00  0.00    +0.036 C 
ATOM     32  C   UNL     1      50.755  20.423  22.164  0.00  0.00    +0.097 C 
ATOM     33  C   UNL     1      51.029  18.038  21.186  0.00  0.00    +0.066 C 
ATOM     34  C   UNL     1      52.445  18.005  20.638  0.00  0.00    +0.042 C 
ATOM     35  O   UNL     1      54.480  13.768  19.589  0.00  0.00    -0.446 OA
ATOM     36  C   UNL     1      52.748  16.860  19.714  0.00  0.00    +0.152 C 
ENDROOT
BRANCH   3   2
ATOM      1  C   UNL     1      55.954  16.273  21.655  0.00  0.00    +0.027 C 
ATOM      2  C   UNL     1      54.447  16.046  21.512  0.00  0.00    +0.047 C 
ENDBRANCH   3   2
BRANCH  36  37
ATOM     37  O   UNL     1      53.040  17.365  18.381  0.00  0.00    -0.547 OA
ATOM     38  H   UNL     1      52.262  17.447  17.813  0.00  0.00    +0.376 HD
ENDBRANCH  36  37
BRANCH   9  10
ATOM     10  O   UNL     1      50.908  18.236  18.414  0.00  0.00    -0.288 OA
BRANCH  10  11
ATOM     11  C   UNL     1      51.228  18.885  17.276  0.00  0.00    +0.527 C 
ATOM     17  O   UNL     1      51.061  18.345  16.201  0.00  0.00    -0.508 OA
BRANCH  11  12
ATOM     12  C   UNL     1      51.779  20.246  17.337  0.00  0.00    -0.162 C 
ATOM     16  C   UNL     1      51.444  21.141  16.411  0.00  0.00    +0.187 C 
BRANCH  12  13
ATOM     13  C   UNL     1      52.722  20.629  18.449  0.00  0.00    +0.252 C 
BRANCH  13  14
ATOM     14  O   UNL     1      52.214  21.777  19.130  0.00  0.00    -0.570 OA
ATOM     15  H   UNL     1      52.879  22.256  19.645  0.00  0.00    +0.386 HD
ENDBRANCH  13  14
ENDBRANCH  12  13
ENDBRANCH  11  12
ENDBRANCH  10  11
ENDBRANCH   9  10
BRANCH  19  20
ATOM     20  C   UNL     1      47.338  17.418  16.654  0.00  0.00    +0.316 C 
BRANCH  20  21
ATOM     21  O   UNL     1      46.492  16.276  16.504  0.00  0.00    -0.348 OA
BRANCH  21  22
ATOM     22  C   UNL     1      46.968  15.102  16.950  0.00  0.00    +0.461 C 
ATOM     23  C   UNL     1      46.214  14.335  18.006  0.00  0.00    +0.164 C 
ATOM     24  O   UNL     1      48.002  14.662  16.506  0.00  0.00    -0.505 OA
ENDBRANCH  21  22
ENDBRANCH  20  21
ENDBRANCH  19  20
TORSDOF 10
ENDMDL
MODEL 3
REMARK VINA RESULT:      -5.4      2.396      6.250
REMARK  Name = ZINC95486039
REMARK  14 active torsions:
REMARK  status: ('A' for Active; 'I' for Inactive)
REMARK    1  A    between atoms: C1_1  and  C2_2
REMARK    2  A    between atoms: C2_2  and  C3_3
REMARK    3  A    between atoms: C5_8  and  C25_40
REMARK    4  A    between atoms: C6_9  and  O11_39
REMARK    5  A    between atoms: C9_12  and  C24_38
REMARK    6  A    between atoms: C13_19  and  C15_23
REMARK    7  A    between atoms: C15_23  and  O6_24
REMARK    8  A    between atoms: O6_24  and  C16_25
REMARK    9  A    between atoms: C16_25  and  C17_27
REMARK   10  A    between atoms: C18_28  and  O8_31
REMARK   11  A    between atoms: O8_31  and  C20_32
REMARK   12  A    between atoms: C20_32  and  C21_34
REMARK   13  A    between atoms: C21_34  and  C23_36
REMARK   14  A    between atoms: C23_36  and  O10_37
REMARK                            x       y       z     vdW  Elec       q    Type
REMARK                         _______ _______ _______ _____ _____    ______ ____
ROOT
ATOM      3  C   UNL     1      51.147  19.664  18.100  0.00  0.00    -0.055 C 
ATOM      4  C   UNL     1      51.808  19.359  16.772  0.00  0.00    +0.479 C 
ATOM      5  O   UNL     1      51.428  18.157  16.291  0.00  0.00    -0.336 OA
ATOM      6  C   UNL     1      51.129  17.351  17.493  0.00  0.00    +0.150 C 
ATOM      7  C   UNL     1      52.537  17.086  18.077  0.00  0.00    +0.062 C 
ATOM      8  C   UNL     1      50.520  16.054  17.065  0.00  0.00    +0.092 C 
ATOM      9  C   UNL     1      49.139  15.618  17.448  0.00  0.00    +0.255 C 
ATOM     18  C   UNL     1      49.119  14.265  18.114  0.00  0.00    -0.092 C 
ATOM     19  C   UNL     1      48.574  13.149  17.632  0.00  0.00    -0.166 C 
ATOM     25  C   UNL     1      48.827  12.053  18.577  0.00  0.00    +0.507 C 
ATOM     26  O   UNL     1      49.696  12.469  19.518  0.00  0.00    -0.303 OA
ATOM     27  O   UNL     1      48.345  10.942  18.508  0.00  0.00    -0.424 OA
ATOM     28  C   UNL     1      49.736  13.903  19.443  0.00  0.00    +0.259 C 
ATOM     29  C   UNL     1      48.965  14.505  20.618  0.00  0.00    +0.114 C 
ATOM     30  O   UNL     1      48.089  15.602  20.392  0.00  0.00    -0.301 OA
ATOM     31  C   UNL     1      49.321  15.946  21.016  0.00  0.00    +0.036 C 
ATOM     32  C   UNL     1      49.311  16.288  22.505  0.00  0.00    +0.097 C 
ATOM     33  C   UNL     1      50.433  16.596  20.189  0.00  0.00    +0.066 C 
ATOM     34  C   UNL     1      50.107  18.023  19.787  0.00  0.00    +0.042 C 
ATOM     35  O   UNL     1      52.576  20.101  16.213  0.00  0.00    -0.446 OA
ATOM     36  C   UNL     1      50.343  18.352  18.340  0.00  0.00    +0.152 C 
ENDROOT
BRANCH   3   2
ATOM      1  C   UNL     1      52.082  21.509  19.486  0.00  0.00    +0.027 C 
ATOM      2  C   UNL     1      52.170  20.015  19.165  0.00  0.00    +0.047 C 
ENDBRANCH   3   2
BRANCH  36  37
ATOM     37  O   UNL     1      49.078  18.671  17.694  0.00  0.00    -0.547 OA
ATOM     38  H   UNL     1      48.300  18.427  18.212  0.00  0.00    +0.376 HD
ENDBRANCH  36  37
BRANCH   9  10
ATOM     10  O   UNL     1      48.429  16.535  18.260  0.00  0.00    -0.288 OA
BRANCH  10  11
ATOM     11  C   UNL     1      47.193  16.884  17.851  0.00  0.00    +0.527 C 
ATOM     17  O   UNL     1      46.899  16.810  16.673  0.00  0.00    -0.508 OA
BRANCH  11  12
ATOM     12  C   UNL     1      46.201  17.354  18.828  0.00  0.00    -0.162 C 
ATOM     16  C   UNL     1      46.128  18.647  19.132  0.00  0.00    +0.187 C 
BRANCH  12  13
ATOM     13  C   UNL     1      45.266  16.372  19.484  0.00  0.00    +0.252 C 
BRANCH  13  14
ATOM     14  O   UNL     1      45.529  15.058  18.986  0.00  0.00    -0.570 OA
ATOM     15  H   UNL     1      46.402  14.958  18.582  0.00  0.00    +0.386 HD
ENDBRANCH  13  14
ENDBRANCH  12  13
ENDBRANCH  11  12
ENDBRANCH  10  11
ENDBRANCH   9  10
BRANCH  19  20
ATOM     20  C   UNL     1      47.820  13.009  16.335  0.00  0.00    +0.316 C 
BRANCH  20  21
ATOM     21  O   UNL     1      46.454  13.375  16.536  0.00  0.00    -0.348 OA
BRANCH  21  22
ATOM     22  C   UNL     1      45.607  12.396  16.894  0.00  0.00    +0.461 C 
ATOM     23  C   UNL     1      45.614  11.085  16.152  0.00  0.00    +0.164 C 
ATOM     24  O   UNL     1      44.838  12.569  17.810  0.00  0.00    -0.505 OA
ENDBRANCH  21  22
ENDBRANCH  20  21
ENDBRANCH  19  20
TORSDOF 10
ENDMDL
MODEL 4
REMARK VINA RESULT:      -5.2      2.288      6.465
REMARK  Name = ZINC95486039
REMARK  14 active torsions:
REMARK  status: ('A' for Active; 'I' for Inactive)
REMARK    1  A    between atoms: C1_1  and  C2_2
REMARK    2  A    between atoms: C2_2  and  C3_3
REMARK    3  A    between atoms: C5_8  and  C25_40
REMARK    4  A    between atoms: C6_9  and  O11_39
REMARK    5  A    between atoms: C9_12  and  C24_38
REMARK    6  A    between atoms: C13_19  and  C15_23
REMARK    7  A    between atoms: C15_23  and  O6_24
REMARK    8  A    between atoms: O6_24  and  C16_25
REMARK    9  A    between atoms: C16_25  and  C17_27
REMARK   10  A    between atoms: C18_28  and  O8_31
REMARK   11  A    between atoms: O8_31  and  C20_32
REMARK   12  A    between atoms: C20_32  and  C21_34
REMARK   13  A    between atoms: C21_34  and  C23_36
REMARK   14  A    between atoms: C23_36  and  O10_37
REMARK                            x       y       z     vdW  Elec       q    Type
REMARK                         _______ _______ _______ _____ _____    ______ ____
ROOT
ATOM      3  C   UNL     1      48.921  15.135  18.865  0.00  0.00    -0.055 C 
ATOM      4  C   UNL     1      49.277  15.663  17.492  0.00  0.00    +0.479 C 
ATOM      5  O   UNL     1      48.690  16.853  17.247  0.00  0.00    -0.336 OA
ATOM      6  C   UNL     1      47.442  16.822  18.038  0.00  0.00    +0.150 C 
ATOM      7  C   UNL     1      46.572  15.813  17.251  0.00  0.00    +0.062 C 
ATOM      8  C   UNL     1      46.802  18.173  17.982  0.00  0.00    +0.092 C 
ATOM      9  C   UNL     1      46.563  19.029  19.188  0.00  0.00    +0.255 C 
ATOM     18  C   UNL     1      45.121  19.449  19.328  0.00  0.00    -0.092 C 
ATOM     19  C   UNL     1      44.641  20.688  19.227  0.00  0.00    -0.166 C 
ATOM     25  C   UNL     1      43.180  20.641  19.378  0.00  0.00    +0.507 C 
ATOM     26  O   UNL     1      42.772  19.358  19.362  0.00  0.00    -0.303 OA
ATOM     27  O   UNL     1      42.454  21.608  19.479  0.00  0.00    -0.424 OA
ATOM     28  C   UNL     1      43.938  18.547  19.580  0.00  0.00    +0.259 C 
ATOM     29  C   UNL     1      43.928  17.998  21.007  0.00  0.00    +0.114 C 
ATOM     30  O   UNL     1      45.127  18.011  21.770  0.00  0.00    -0.301 OA
ATOM     31  C   UNL     1      44.757  16.731  21.269  0.00  0.00    +0.036 C 
ATOM     32  C   UNL     1      44.185  15.705  22.246  0.00  0.00    +0.097 C 
ATOM     33  C   UNL     1      45.479  16.160  20.047  0.00  0.00    +0.066 C 
ATOM     34  C   UNL     1      46.911  15.754  20.348  0.00  0.00    +0.042 C 
ATOM     35  O   UNL     1      50.001  15.092  16.715  0.00  0.00    -0.446 OA
ATOM     36  C   UNL     1      47.936  16.235  19.361  0.00  0.00    +0.152 C 
ENDROOT
BRANCH   3   2
ATOM      1  C   UNL     1      49.176  12.800  19.690  0.00  0.00    +0.027 C 
ATOM      2  C   UNL     1      48.355  13.728  18.792  0.00  0.00    +0.047 C 
ENDBRANCH   3   2
BRANCH  36  37
ATOM     37  O   UNL     1      48.849  17.163  20.010  0.00  0.00    -0.547 OA
ATOM     38  H   UNL     1      49.048  17.951  19.485  0.00  0.00    +0.376 HD
ENDBRANCH  36  37
BRANCH   9  10
ATOM     10  O   UNL     1      46.993  18.466  20.413  0.00  0.00    -0.288 OA
BRANCH  10  11
ATOM     11  C   UNL     1      47.816  19.213  21.175  0.00  0.00    +0.527 C 
ATOM     17  O   UNL     1      48.200  18.792  22.248  0.00  0.00    -0.508 OA
BRANCH  11  12
ATOM     12  C   UNL     1      48.249  20.537  20.707  0.00  0.00    -0.162 C 
ATOM     16  C   UNL     1      47.935  21.625  21.405  0.00  0.00    +0.187 C 
BRANCH  12  13
ATOM     13  C   UNL     1      49.051  20.663  19.437  0.00  0.00    +0.252 C 
BRANCH  13  14
ATOM     14  O   UNL     1      49.931  19.543  19.316  0.00  0.00    -0.570 OA
ATOM     15  H   UNL     1      49.622  18.864  18.701  0.00  0.00    +0.386 HD
ENDBRANCH  13  14
ENDBRANCH  12  13
ENDBRANCH  11  12
ENDBRANCH  10  11
ENDBRANCH   9  10
BRANCH  19  20
ATOM     20  C   UNL     1      45.442  21.943  18.996  0.00  0.00    +0.316 C 
BRANCH  20  21
ATOM     21  O   UNL     1      44.715  23.069  19.493  0.00  0.00    -0.348 OA
BRANCH  21  22
ATOM     22  C   UNL     1      45.054  23.525  20.709  0.00  0.00    +0.461 C 
ATOM     23  C   UNL     1      45.935  24.740  20.840  0.00  0.00    +0.164 C 
ATOM     24  O   UNL     1      44.653  22.960  21.699  0.00  0.00    -0.505 OA
ENDBRANCH  21  22
ENDBRANCH  20  21
ENDBRANCH  19  20
TORSDOF 10
ENDMDL
MODEL 5
REMARK VINA RESULT:      -5.0      3.077      5.608
REMARK  Name = ZINC95486039
REMARK  14 active torsions:
REMARK  status: ('A' for Active; 'I' for Inactive)
REMARK    1  A    between atoms: C1_1  and  C2_2
REMARK    2  A    between atoms: C2_2  and  C3_3
REMARK    3  A    between atoms: C5_8  and  C25_40
REMARK    4  A    between atoms: C6_9  and  O11_39
REMARK    5  A    between atoms: C9_12  and  C24_38
REMARK    6  A    between atoms: C13_19  and  C15_23
REMARK    7  A    between atoms: C15_23  and  O6_24
REMARK    8  A    between atoms: O6_24  and  C16_25
REMARK    9  A    between atoms: C16_25  and  C17_27
REMARK   10  A    between atoms: C18_28  and  O8_31
REMARK   11  A    between atoms: O8_31  and  C20_32
REMARK   12  A    between atoms: C20_32  and  C21_34
REMARK   13  A    between atoms: C21_34  and  C23_36
REMARK   14  A    between atoms: C23_36  and  O10_37
REMARK                            x       y       z     vdW  Elec       q    Type
REMARK                         _______ _______ _______ _____ _____    ______ ____
ROOT
ATOM      3  C   UNL     1      50.149  19.700  19.260  0.00  0.00    -0.055 C 
ATOM      4  C   UNL     1      50.694  20.214  17.944  0.00  0.00    +0.479 C 
ATOM      5  O   UNL     1      50.876  19.215  17.056  0.00  0.00    -0.336 OA
ATOM      6  C   UNL     1      51.161  18.026  17.885  0.00  0.00    +0.150 C 
ATOM      7  C   UNL     1      52.586  18.316  18.409  0.00  0.00    +0.062 C 
ATOM      8  C   UNL     1      51.196  16.819  17.001  0.00  0.00    +0.092 C 
ATOM      9  C   UNL     1      50.256  15.661  17.139  0.00  0.00    +0.255 C 
ATOM     18  C   UNL     1      50.974  14.343  17.289  0.00  0.00    -0.092 C 
ATOM     19  C   UNL     1      50.972  13.332  16.422  0.00  0.00    -0.166 C 
ATOM     25  C   UNL     1      51.841  12.265  16.936  0.00  0.00    +0.507 C 
ATOM     26  O   UNL     1      52.520  12.723  18.005  0.00  0.00    -0.303 OA
ATOM     27  O   UNL     1      51.945  11.155  16.460  0.00  0.00    -0.424 OA
ATOM     28  C   UNL     1      51.859  13.922  18.437  0.00  0.00    +0.259 C 
ATOM     29  C   UNL     1      51.056  13.643  19.708  0.00  0.00    +0.114 C 
ATOM     30  O   UNL     1      49.741  14.168  19.835  0.00  0.00    -0.301 OA
ATOM     31  C   UNL     1      50.729  14.850  20.602  0.00  0.00    +0.036 C 
ATOM     32  C   UNL     1      50.753  14.634  22.114  0.00  0.00    +0.097 C 
ATOM     33  C   UNL     1      51.274  16.192  20.110  0.00  0.00    +0.066 C 
ATOM     34  C   UNL     1      50.254  17.313  20.215  0.00  0.00    +0.042 C 
ATOM     35  O   UNL     1      50.932  21.374  17.718  0.00  0.00    -0.446 OA
ATOM     36  C   UNL     1      50.111  18.167  18.987  0.00  0.00    +0.152 C 
ENDROOT
BRANCH   3   2
ATOM      1  C   UNL     1      50.139  20.855  21.465  0.00  0.00    +0.027 C 
ATOM      2  C   UNL     1      51.010  20.140  20.431  0.00  0.00    +0.047 C 
ENDBRANCH   3   2
BRANCH  36  37
ATOM     37  O   UNL     1      48.775  18.011  18.430  0.00  0.00    -0.547 OA
ATOM     38  H   UNL     1      48.117  17.704  19.068  0.00  0.00    +0.376 HD
ENDBRANCH  36  37
BRANCH   9  10
ATOM     10  O   UNL     1      49.309  15.784  18.183  0.00  0.00    -0.288 OA
BRANCH  10  11
ATOM     11  C   UNL     1      48.020  15.539  17.871  0.00  0.00    +0.527 C 
ATOM     17  O   UNL     1      47.616  15.754  16.745  0.00  0.00    -0.508 OA
BRANCH  11  12
ATOM     12  C   UNL     1      47.105  15.010  18.892  0.00  0.00    -0.162 C 
ATOM     16  C   UNL     1      46.716  15.786  19.902  0.00  0.00    +0.187 C 
BRANCH  12  13
ATOM     13  C   UNL     1      46.606  13.592  18.796  0.00  0.00    +0.252 C 
BRANCH  13  14
ATOM     14  O   UNL     1      47.585  12.786  18.137  0.00  0.00    -0.570 OA
ATOM     15  H   UNL     1      48.348  12.564  18.688  0.00  0.00    +0.386 HD
ENDBRANCH  13  14
ENDBRANCH  12  13
ENDBRANCH  11  12
ENDBRANCH  10  11
ENDBRANCH   9  10
BRANCH  19  20
ATOM     20  C   UNL     1      50.213  13.270  15.121  0.00  0.00    +0.316 C 
BRANCH  20  21
ATOM     21  O   UNL     1      51.119  13.455  14.032  0.00  0.00    -0.348 OA
BRANCH  21  22
ATOM     22  C   UNL     1      50.949  12.668  12.957  0.00  0.00    +0.461 C 
ATOM     23  C   UNL     1      50.580  13.276  11.629  0.00  0.00    +0.164 C 
ATOM     24  O   UNL     1      51.091  11.472  13.057  0.00  0.00    -0.505 OA
ENDBRANCH  21  22
ENDBRANCH  20  21
ENDBRANCH  19  20
TORSDOF 10
ENDMDL
MODEL 6
REMARK VINA RESULT:      -5.0      1.824      5.434
REMARK  Name = ZINC95486039
REMARK  14 active torsions:
REMARK  status: ('A' for Active; 'I' for Inactive)
REMARK    1  A    between atoms: C1_1  and  C2_2
REMARK    2  A    between atoms: C2_2  and  C3_3
REMARK    3  A    between atoms: C5_8  and  C25_40
REMARK    4  A    between atoms: C6_9  and  O11_39
REMARK    5  A    between atoms: C9_12  and  C24_38
REMARK    6  A    between atoms: C13_19  and  C15_23
REMARK    7  A    between atoms: C15_23  and  O6_24
REMARK    8  A    between atoms: O6_24  and  C16_25
REMARK    9  A    between atoms: C16_25  and  C17_27
REMARK   10  A    between atoms: C18_28  and  O8_31
REMARK   11  A    between atoms: O8_31  and  C20_32
REMARK   12  A    between atoms: C20_32  and  C21_34
REMARK   13  A    between atoms: C21_34  and  C23_36
REMARK   14  A    between atoms: C23_36  and  O10_37
REMARK                            x       y       z     vdW  Elec       q    Type
REMARK                         _______ _______ _______ _____ _____    ______ ____
ROOT
ATOM      3  C   UNL     1      47.984  13.675  17.960  0.00  0.00    -0.055 C 
ATOM      4  C   UNL     1      48.658  14.204  16.712  0.00  0.00    +0.479 C 
ATOM      5  O   UNL     1      48.905  15.527  16.802  0.00  0.00    -0.336 OA
ATOM      6  C   UNL     1      47.841  16.047  17.687  0.00  0.00    +0.150 C 
ATOM      7  C   UNL     1      46.587  15.966  16.785  0.00  0.00    +0.062 C 
ATOM      8  C   UNL     1      48.132  17.480  18.001  0.00  0.00    +0.092 C 
ATOM      9  C   UNL     1      48.383  17.992  19.386  0.00  0.00    +0.255 C 
ATOM     18  C   UNL     1      47.467  19.130  19.762  0.00  0.00    -0.092 C 
ATOM     19  C   UNL     1      47.821  20.393  19.991  0.00  0.00    -0.166 C 
ATOM     25  C   UNL     1      46.612  21.179  20.274  0.00  0.00    +0.507 C 
ATOM     26  O   UNL     1      45.524  20.430  20.011  0.00  0.00    -0.303 OA
ATOM     27  O   UNL     1      46.598  22.328  20.663  0.00  0.00    -0.424 OA
ATOM     28  C   UNL     1      45.968  19.067  19.922  0.00  0.00    +0.259 C 
ATOM     29  C   UNL     1      45.557  18.306  21.183  0.00  0.00    +0.114 C 
ATOM     30  O   UNL     1      46.486  17.428  21.805  0.00  0.00    -0.301 OA
ATOM     31  C   UNL     1      45.456  16.777  21.068  0.00  0.00    +0.036 C 
ATOM     32  C   UNL     1      44.335  16.084  21.842  0.00  0.00    +0.097 C 
ATOM     33  C   UNL     1      45.764  16.205  19.683  0.00  0.00    +0.066 C 
ATOM     34  C   UNL     1      46.657  14.978  19.739  0.00  0.00    +0.042 C 
ATOM     35  O   UNL     1      48.942  13.525  15.758  0.00  0.00    -0.446 OA
ATOM     36  C   UNL     1      47.819  14.985  18.787  0.00  0.00    +0.152 C 
ENDROOT
BRANCH   3   2
ATOM      1  C   UNL     1      46.960  11.430  17.631  0.00  0.00    +0.027 C 
ATOM      2  C   UNL     1      46.698  12.938  17.630  0.00  0.00    +0.047 C 
ENDBRANCH   3   2
BRANCH  36  37
ATOM     37  O   UNL     1      49.068  15.010  19.533  0.00  0.00    -0.547 OA
ATOM     38  H   UNL     1      48.973  14.777  20.466  0.00  0.00    +0.376 HD
ENDBRANCH  36  37
BRANCH   9  10
ATOM     10  O   UNL     1      48.328  17.010  20.404  0.00  0.00    -0.288 OA
BRANCH  10  11
ATOM     11  C   UNL     1      49.391  16.921  21.227  0.00  0.00    +0.527 C 
ATOM     17  O   UNL     1      49.420  16.068  22.093  0.00  0.00    -0.508 OA
BRANCH  11  12
ATOM     12  C   UNL     1      50.516  17.855  21.078  0.00  0.00    -0.162 C 
ATOM     16  C   UNL     1      50.700  18.823  21.972  0.00  0.00    +0.187 C 
BRANCH  12  13
ATOM     13  C   UNL     1      51.462  17.715  19.913  0.00  0.00    +0.252 C 
BRANCH  13  14
ATOM     14  O   UNL     1      51.405  16.379  19.410  0.00  0.00    -0.570 OA
ATOM     15  H   UNL     1      50.907  15.768  19.972  0.00  0.00    +0.386 HD
ENDBRANCH  13  14
ENDBRANCH  12  13
ENDBRANCH  11  12
ENDBRANCH  10  11
ENDBRANCH   9  10
BRANCH  19  20
ATOM     20  C   UNL     1      49.222  20.949  19.969  0.00  0.00    +0.316 C 
BRANCH  20  21
ATOM     21  O   UNL     1      49.633  21.151  18.616  0.00  0.00    -0.348 OA
BRANCH  21  22
ATOM     22  C   UNL     1      50.953  21.150  18.373  0.00  0.00    +0.461 C 
ATOM     23  C   UNL     1      51.464  20.845  16.988  0.00  0.00    +0.164 C 
ATOM     24  O   UNL     1      51.731  21.393  19.265  0.00  0.00    -0.505 OA
ENDBRANCH  21  22
ENDBRANCH  20  21
ENDBRANCH  19  20
TORSDOF 10
ENDMDL
MODEL 7
REMARK VINA RESULT:      -5.0      2.197      6.587
REMARK  Name = ZINC95486039
REMARK  14 active torsions:
REMARK  status: ('A' for Active; 'I' for Inactive)
REMARK    1  A    between atoms: C1_1  and  C2_2
REMARK    2  A    between atoms: C2_2  and  C3_3
REMARK    3  A    between atoms: C5_8  and  C25_40
REMARK    4  A    between atoms: C6_9  and  O11_39
REMARK    5  A    between atoms: C9_12  and  C24_38
REMARK    6  A    between atoms: C13_19  and  C15_23
REMARK    7  A    between atoms: C15_23  and  O6_24
REMARK    8  A    between atoms: O6_24  and  C16_25
REMARK    9  A    between atoms: C16_25  and  C17_27
REMARK   10  A    between atoms: C18_28  and  O8_31
REMARK   11  A    between atoms: O8_31  and  C20_32
REMARK   12  A    between atoms: C20_32  and  C21_34
REMARK   13  A    between atoms: C21_34  and  C23_36
REMARK   14  A    between atoms: C23_36  and  O10_37
REMARK                            x       y       z     vdW  Elec       q    Type
REMARK                         _______ _______ _______ _____ _____    ______ ____
ROOT
ATOM      3  C   UNL     1      49.138  12.614  16.770  0.00  0.00    -0.055 C 
ATOM      4  C   UNL     1      48.246  12.684  15.548  0.00  0.00    +0.479 C 
ATOM      5  O   UNL     1      47.367  13.704  15.631  0.00  0.00    -0.336 OA
ATOM      6  C   UNL     1      47.131  13.877  17.079  0.00  0.00    +0.150 C 
ATOM      7  C   UNL     1      46.284  12.632  17.432  0.00  0.00    +0.062 C 
ATOM      8  C   UNL     1      46.309  15.109  17.291  0.00  0.00    +0.092 C 
ATOM      9  C   UNL     1      46.779  16.298  18.071  0.00  0.00    +0.255 C 
ATOM     18  C   UNL     1      45.832  16.678  19.181  0.00  0.00    -0.092 C 
ATOM     19  C   UNL     1      45.112  17.796  19.263  0.00  0.00    -0.166 C 
ATOM     25  C   UNL     1      44.287  17.738  20.478  0.00  0.00    +0.507 C 
ATOM     26  O   UNL     1      44.362  16.502  21.007  0.00  0.00    -0.303 OA
ATOM     27  O   UNL     1      43.626  18.653  20.921  0.00  0.00    -0.424 OA
ATOM     28  C   UNL     1      45.493  15.857  20.400  0.00  0.00    +0.259 C 
ATOM     29  C   UNL     1      46.653  15.799  21.395  0.00  0.00    +0.114 C 
ATOM     30  O   UNL     1      47.968  16.110  20.955  0.00  0.00    -0.301 OA
ATOM     31  C   UNL     1      47.721  14.721  21.153  0.00  0.00    +0.036 C 
ATOM     32  C   UNL     1      48.328  14.042  22.380  0.00  0.00    +0.097 C 
ATOM     33  C   UNL     1      47.474  13.817  19.944  0.00  0.00    +0.066 C 
ATOM     34  C   UNL     1      48.725  13.592  19.113  0.00  0.00    +0.042 C 
ATOM     35  O   UNL     1      48.316  11.924  14.615  0.00  0.00    -0.446 OA
ATOM     36  C   UNL     1      48.553  13.772  17.632  0.00  0.00    +0.152 C 
ENDROOT
BRANCH   3   2
ATOM      1  C   UNL     1      50.381  10.474  17.044  0.00  0.00    +0.027 C 
ATOM      2  C   UNL     1      49.104  11.236  17.407  0.00  0.00    +0.047 C 
ENDBRANCH   3   2
BRANCH  36  37
ATOM     37  O   UNL     1      49.353  14.898  17.175  0.00  0.00    -0.547 OA
ATOM     38  H   UNL     1      50.245  14.922  17.544  0.00  0.00    +0.376 HD
ENDBRANCH  36  37
BRANCH   9  10
ATOM     10  O   UNL     1      48.084  16.180  18.607  0.00  0.00    -0.288 OA
BRANCH  10  11
ATOM     11  C   UNL     1      48.954  17.170  18.324  0.00  0.00    +0.527 C 
ATOM     17  O   UNL     1      48.916  17.720  17.240  0.00  0.00    -0.508 OA
BRANCH  11  12
ATOM     12  C   UNL     1      49.946  17.585  19.325  0.00  0.00    -0.162 C 
ATOM     16  C   UNL     1      51.078  16.899  19.464  0.00  0.00    +0.187 C 
BRANCH  12  13
ATOM     13  C   UNL     1      49.683  18.788  20.193  0.00  0.00    +0.252 C 
BRANCH  13  14
ATOM     14  O   UNL     1      48.282  19.070  20.205  0.00  0.00    -0.570 OA
ATOM     15  H   UNL     1      48.066  19.996  20.030  0.00  0.00    +0.386 HD
ENDBRANCH  13  14
ENDBRANCH  12  13
ENDBRANCH  11  12
ENDBRANCH  10  11
ENDBRANCH   9  10
BRANCH  19  20
ATOM     20  C   UNL     1      45.122  18.943  18.285  0.00  0.00    +0.316 C 
BRANCH  20  21
ATOM     21  O   UNL     1      44.662  20.128  18.936  0.00  0.00    -0.348 OA
BRANCH  21  22
ATOM     22  C   UNL     1      45.528  21.150  19.026  0.00  0.00    +0.461 C 
ATOM     23  C   UNL     1      45.062  22.490  19.536  0.00  0.00    +0.164 C 
ATOM     24  O   UNL     1      46.680  20.995  18.696  0.00  0.00    -0.505 OA
ENDBRANCH  21  22
ENDBRANCH  20  21
ENDBRANCH  19  20
TORSDOF 10
ENDMDL
MODEL 8
REMARK VINA RESULT:      -4.9      1.809      3.827
REMARK  Name = ZINC95486039
REMARK  14 active torsions:
REMARK  status: ('A' for Active; 'I' for Inactive)
REMARK    1  A    between atoms: C1_1  and  C2_2
REMARK    2  A    between atoms: C2_2  and  C3_3
REMARK    3  A    between atoms: C5_8  and  C25_40
REMARK    4  A    between atoms: C6_9  and  O11_39
REMARK    5  A    between atoms: C9_12  and  C24_38
REMARK    6  A    between atoms: C13_19  and  C15_23
REMARK    7  A    between atoms: C15_23  and  O6_24
REMARK    8  A    between atoms: O6_24  and  C16_25
REMARK    9  A    between atoms: C16_25  and  C17_27
REMARK   10  A    between atoms: C18_28  and  O8_31
REMARK   11  A    between atoms: O8_31  and  C20_32
REMARK   12  A    between atoms: C20_32  and  C21_34
REMARK   13  A    between atoms: C21_34  and  C23_36
REMARK   14  A    between atoms: C23_36  and  O10_37
REMARK                            x       y       z     vdW  Elec       q    Type
REMARK                         _______ _______ _______ _____ _____    ______ ____
ROOT
ATOM      3  C   UNL     1      44.576  20.434  20.787  0.00  0.00    -0.055 C 
ATOM      4  C   UNL     1      43.857  20.140  19.487  0.00  0.00    +0.479 C 
ATOM      5  O   UNL     1      44.538  19.257  18.729  0.00  0.00    -0.336 OA
ATOM      6  C   UNL     1      45.956  19.476  19.085  0.00  0.00    +0.150 C 
ATOM      7  C   UNL     1      46.260  20.841  18.424  0.00  0.00    +0.062 C 
ATOM      8  C   UNL     1      46.786  18.416  18.432  0.00  0.00    +0.092 C 
ATOM      9  C   UNL     1      47.613  17.424  19.191  0.00  0.00    +0.255 C 
ATOM     18  C   UNL     1      49.058  17.422  18.763  0.00  0.00    -0.092 C 
ATOM     19  C   UNL     1      49.705  16.430  18.151  0.00  0.00    -0.166 C 
ATOM     25  C   UNL     1      51.080  16.866  17.870  0.00  0.00    +0.507 C 
ATOM     26  O   UNL     1      51.190  18.183  18.127  0.00  0.00    -0.303 OA
ATOM     27  O   UNL     1      51.969  16.155  17.452  0.00  0.00    -0.424 OA
ATOM     28  C   UNL     1      50.048  18.550  18.917  0.00  0.00    +0.259 C 
ATOM     29  C   UNL     1      50.468  18.751  20.373  0.00  0.00    +0.114 C 
ATOM     30  O   UNL     1      49.658  18.223  21.415  0.00  0.00    -0.301 OA
ATOM     31  C   UNL     1      49.558  19.633  21.243  0.00  0.00    +0.036 C 
ATOM     32  C   UNL     1      50.230  20.541  22.272  0.00  0.00    +0.097 C 
ATOM     33  C   UNL     1      48.342  20.222  20.525  0.00  0.00    +0.066 C 
ATOM     34  C   UNL     1      47.068  20.118  21.345  0.00  0.00    +0.042 C 
ATOM     35  O   UNL     1      42.802  20.632  19.173  0.00  0.00    -0.446 OA
ATOM     36  C   UNL     1      45.871  19.588  20.607  0.00  0.00    +0.152 C 
ENDROOT
BRANCH   3   2
ATOM      1  C   UNL     1      44.658  22.267  22.469  0.00  0.00    +0.027 C 
ATOM      2  C   UNL     1      44.786  21.926  20.983  0.00  0.00    +0.047 C 
ENDBRANCH   3   2
BRANCH  36  37
ATOM     37  O   UNL     1      45.461  18.315  21.181  0.00  0.00    -0.547 OA
ATOM     38  H   UNL     1      44.534  18.287  21.452  0.00  0.00    +0.376 HD
ENDBRANCH  36  37
BRANCH   9  10
ATOM     10  O   UNL     1      47.556  17.555  20.599  0.00  0.00    -0.288 OA
BRANCH  10  11
ATOM     11  C   UNL     1      47.199  16.460  21.301  0.00  0.00    +0.527 C 
ATOM     17  O   UNL     1      47.048  16.533  22.505  0.00  0.00    -0.508 OA
BRANCH  11  12
ATOM     12  C   UNL     1      46.992  15.180  20.611  0.00  0.00    -0.162 C 
ATOM     16  C   UNL     1      47.933  14.240  20.656  0.00  0.00    +0.187 C 
BRANCH  12  13
ATOM     13  C   UNL     1      45.714  14.930  19.853  0.00  0.00    +0.252 C 
BRANCH  13  14
ATOM     14  O   UNL     1      44.740  15.907  20.226  0.00  0.00    -0.570 OA
ATOM     15  H   UNL     1      45.118  16.728  20.570  0.00  0.00    +0.386 HD
ENDBRANCH  13  14
ENDBRANCH  12  13
ENDBRANCH  11  12
ENDBRANCH  10  11
ENDBRANCH   9  10
BRANCH  19  20
ATOM     20  C   UNL     1      49.142  15.078  17.795  0.00  0.00    +0.316 C 
BRANCH  20  21
ATOM     21  O   UNL     1      48.500  15.151  16.521  0.00  0.00    -0.348 OA
BRANCH  21  22
ATOM     22  C   UNL     1      47.194  14.841  16.477  0.00  0.00    +0.461 C 
ATOM     23  C   UNL     1      46.746  13.428  16.751  0.00  0.00    +0.164 C 
ATOM     24  O   UNL     1      46.380  15.694  16.216  0.00  0.00    -0.505 OA
ENDBRANCH  21  22
ENDBRANCH  20  21
ENDBRANCH  19  20
TORSDOF 10
ENDMDL
MODEL 9
REMARK VINA RESULT:      -4.7      2.412      4.464
REMARK  Name = ZINC95486039
REMARK  14 active torsions:
REMARK  status: ('A' for Active; 'I' for Inactive)
REMARK    1  A    between atoms: C1_1  and  C2_2
REMARK    2  A    between atoms: C2_2  and  C3_3
REMARK    3  A    between atoms: C5_8  and  C25_40
REMARK    4  A    between atoms: C6_9  and  O11_39
REMARK    5  A    between atoms: C9_12  and  C24_38
REMARK    6  A    between atoms: C13_19  and  C15_23
REMARK    7  A    between atoms: C15_23  and  O6_24
REMARK    8  A    between atoms: O6_24  and  C16_25
REMARK    9  A    between atoms: C16_25  and  C17_27
REMARK   10  A    between atoms: C18_28  and  O8_31
REMARK   11  A    between atoms: O8_31  and  C20_32
REMARK   12  A    between atoms: C20_32  and  C21_34
REMARK   13  A    between atoms: C21_34  and  C23_36
REMARK   14  A    between atoms: C23_36  and  O10_37
REMARK                            x       y       z     vdW  Elec       q    Type
REMARK                         _______ _______ _______ _____ _____    ______ ____
ROOT
ATOM      3  C   UNL     1      44.642  20.214  20.744  0.00  0.00    -0.055 C 
ATOM      4  C   UNL     1      43.920  20.499  19.443  0.00  0.00    +0.479 C 
ATOM      5  O   UNL     1      44.234  19.595  18.491  0.00  0.00    -0.336 OA
ATOM      6  C   UNL     1      45.607  19.164  18.824  0.00  0.00    +0.150 C 
ATOM      7  C   UNL     1      46.449  20.404  18.446  0.00  0.00    +0.062 C 
ATOM      8  C   UNL     1      45.983  18.022  17.934  0.00  0.00    +0.092 C 
ATOM      9  C   UNL     1      46.322  16.652  18.438  0.00  0.00    +0.255 C 
ATOM     18  C   UNL     1      47.668  16.172  17.958  0.00  0.00    -0.092 C 
ATOM     19  C   UNL     1      47.901  15.155  17.129  0.00  0.00    -0.166 C 
ATOM     25  C   UNL     1      49.347  15.065  16.885  0.00  0.00    +0.507 C 
ATOM     26  O   UNL     1      49.953  16.151  17.402  0.00  0.00    -0.303 OA
ATOM     27  O   UNL     1      49.903  14.165  16.293  0.00  0.00    -0.424 OA
ATOM     28  C   UNL     1      49.014  16.765  18.298  0.00  0.00    +0.259 C 
ATOM     29  C   UNL     1      49.416  16.483  19.746  0.00  0.00    +0.114 C 
ATOM     30  O   UNL     1      48.420  16.112  20.690  0.00  0.00    -0.301 OA
ATOM     31  C   UNL     1      48.887  17.451  20.815  0.00  0.00    +0.036 C 
ATOM     32  C   UNL     1      49.817  17.791  21.979  0.00  0.00    +0.097 C 
ATOM     33  C   UNL     1      48.032  18.603  20.285  0.00  0.00    +0.066 C 
ATOM     34  C   UNL     1      46.785  18.840  21.119  0.00  0.00    +0.042 C 
ATOM     35  O   UNL     1      43.157  21.418  19.281  0.00  0.00    -0.446 OA
ATOM     36  C   UNL     1      45.509  18.985  20.340  0.00  0.00    +0.152 C 
ENDROOT
BRANCH   3   2
ATOM      1  C   UNL     1      44.753  21.970  22.505  0.00  0.00    +0.027 C 
ATOM      2  C   UNL     1      45.410  21.430  21.233  0.00  0.00    +0.047 C 
ENDBRANCH   3   2
BRANCH  36  37
ATOM     37  O   UNL     1      44.609  17.886  20.657  0.00  0.00    -0.547 OA
ATOM     38  H   UNL     1      43.932  17.726  19.986  0.00  0.00    +0.376 HD
ENDBRANCH  36  37
BRANCH   9  10
ATOM     10  O   UNL     1      46.261  16.503  19.844  0.00  0.00    -0.288 OA
BRANCH  10  11
ATOM     11  C   UNL     1      45.509  15.490  20.319  0.00  0.00    +0.527 C 
ATOM     17  O   UNL     1      44.541  15.726  21.015  0.00  0.00    -0.508 OA
BRANCH  11  12
ATOM     12  C   UNL     1      45.861  14.100  19.996  0.00  0.00    -0.162 C 
ATOM     16  C   UNL     1      45.022  13.351  19.284  0.00  0.00    +0.187 C 
BRANCH  12  13
ATOM     13  C   UNL     1      47.170  13.524  20.468  0.00  0.00    +0.252 C 
BRANCH  13  14
ATOM     14  O   UNL     1      47.638  12.564  19.519  0.00  0.00    -0.570 OA
ATOM     15  H   UNL     1      48.549  12.275  19.669  0.00  0.00    +0.386 HD
ENDBRANCH  13  14
ENDBRANCH  12  13
ENDBRANCH  11  12
ENDBRANCH  10  11
ENDBRANCH   9  10
BRANCH  19  20
ATOM     20  C   UNL     1      46.869  14.236  16.527  0.00  0.00    +0.316 C 
BRANCH  20  21
ATOM     21  O   UNL     1      47.226  12.879  16.795  0.00  0.00    -0.348 OA
BRANCH  21  22
ATOM     22  C   UNL     1      47.029  11.990  15.807  0.00  0.00    +0.461 C 
ATOM     23  C   UNL     1      46.075  10.841  16.007  0.00  0.00    +0.164 C 
ATOM     24  O   UNL     1      47.618  12.112  14.760  0.00  0.00    -0.505 OA
ENDBRANCH  21  22
ENDBRANCH  20  21
ENDBRANCH  19  20
TORSDOF 10
ENDMDL
