MODEL 1
REMARK VINA RESULT:      -7.6      0.000      0.000
REMARK  Name = ZINC95486111
REMARK  13 active torsions:
REMARK  status: ('A' for Active; 'I' for Inactive)
REMARK    1  A    between atoms: C1_1  and  C2_2
REMARK    2  A    between atoms: C6_7  and  C29_36
REMARK    3  A    between atoms: C6_7  and  O4_37
REMARK    4  A    between atoms: C9_10  and  O3_35
REMARK    5  A    between atoms: C10_12  and  C28_34
REMARK    6  A    between atoms: C14_17  and  C27_33
REMARK    7  A    between atoms: C18_21  and  C26_30
REMARK    8  A    between atoms: C21_25  and  C24_28
REMARK    9  A    between atoms: C21_25  and  C25_29
REMARK   10  A    between atoms: O4_37  and  C30_38
REMARK   11  A    between atoms: C30_38  and  O6_40
REMARK   12  A    between atoms: O6_40  and  C31_41
REMARK   13  A    between atoms: C34_44  and  O7_47
REMARK                            x       y       z     vdW  Elec       q    Type
REMARK                         _______ _______ _______ _____ _____    ______ ____
ROOT
ATOM      1  C   UNL     1      45.835  15.214  18.919  0.00  0.00    +0.032 C 
ATOM      2  C   UNL     1      47.017  15.974  18.291  0.00  0.00    +0.002 C 
ATOM      3  C   UNL     1      46.484  17.074  17.373  0.00  0.00    +0.017 C 
ATOM      4  C   UNL     1      45.872  18.207  18.209  0.00  0.00    +0.020 C 
ATOM      5  C   UNL     1      46.943  18.783  19.131  0.00  0.00    +0.031 C 
ATOM      6  C   UNL     1      46.519  20.091  19.769  0.00  0.00    +0.151 C 
ATOM     19  C   UNL     1      46.254  21.137  18.669  0.00  0.00    +0.034 C 
ATOM     20  C   UNL     1      47.646  20.628  20.655  0.00  0.00    +0.022 C 
ATOM     21  C   UNL     1      48.009  19.587  21.706  0.00  0.00    -0.015 C 
ATOM     22  C   UNL     1      48.492  18.297  21.037  0.00  0.00    +0.170 C 
ATOM     25  C   UNL     1      47.391  17.716  20.137  0.00  0.00    -0.028 C 
ATOM     26  C   UNL     1      46.250  17.265  21.042  0.00  0.00    +0.044 C 
ATOM     27  C   UNL     1      47.762  14.945  17.443  0.00  0.00    -0.113 C 
ATOM     28  C   UNL     1      47.096  14.420  16.446  0.00  0.00    -0.016 C 
ATOM     29  C   UNL     1      47.680  13.308  15.614  0.00  0.00    +0.048 C 
ATOM     30  C   UNL     1      48.526  12.453  16.570  0.00  0.00    -0.112 C 
ATOM     34  C   UNL     1      49.675  13.322  17.066  0.00  0.00    +0.020 C 
ATOM     35  C   UNL     1      50.625  13.673  15.933  0.00  0.00    +0.016 C 
ATOM     36  C   UNL     1      51.096  12.452  15.140  0.00  0.00    -0.065 C 
ATOM     37  C   UNL     1      52.033  11.602  15.998  0.00  0.00    +0.017 C 
ATOM     38  C   UNL     1      51.875  12.944  13.909  0.00  0.00    +0.006 C 
ATOM     39  C   UNL     1      49.913  11.619  14.659  0.00  0.00    +0.002 C 
ATOM     40  C   UNL     1      49.039  11.213  15.841  0.00  0.00    +0.013 C 
ATOM     41  C   UNL     1      49.168  14.577  17.783  0.00  0.00    +0.013 C 
ATOM     42  C   UNL     1      50.093  15.722  17.353  0.00  0.00    +0.004 C 
ATOM     43  C   UNL     1      49.317  14.399  19.289  0.00  0.00    +0.010 C 
ATOM     44  C   UNL     1      48.677  15.504  20.121  0.00  0.00    +0.024 C 
ATOM     45  C   UNL     1      47.973  16.566  19.310  0.00  0.00    +0.002 C 
ENDROOT
BRANCH  30  31
ATOM     31  C   UNL     1      47.675  11.989  17.728  0.00  0.00    +0.514 C 
ATOM     32  O   UNL     1      48.200  11.667  18.779  0.00  0.00    -0.703 OA
ATOM     33  O   UNL     1      46.462  11.936  17.611  0.00  0.00    -0.687 OA
ENDBRANCH  30  31
BRANCH  22  23
ATOM     23  O   UNL     1      48.778  17.361  22.088  0.00  0.00    -0.551 OA
ATOM     24  H   UNL     1      48.943  16.460  21.778  0.00  0.00    +0.367 HD
ENDBRANCH  22  23
BRANCH   6   7
ATOM      7  O   UNL     1      45.326  19.939  20.540  0.00  0.00    -0.293 OA
BRANCH   7   8
ATOM      8  C   UNL     1      44.746  21.065  20.995  0.00  0.00    +0.599 C 
ATOM     18  O   UNL     1      44.720  21.294  22.188  0.00  0.00    -0.528 OA
BRANCH   8   9
ATOM      9  O   UNL     1      44.196  21.936  20.130  0.00  0.00    -0.267 OA
BRANCH   9  10
ATOM     10  C   UNL     1      43.001  21.610  19.568  0.00  0.00    +0.088 A 
ATOM     11  C   UNL     1      42.205  22.599  19.008  0.00  0.00    +0.038 A 
ATOM     12  C   UNL     1      40.992  22.268  18.437  0.00  0.00    +0.008 A 
ATOM     13  C   UNL     1      40.569  20.948  18.424  0.00  0.00    +0.114 A 
ATOM     16  C   UNL     1      41.363  19.959  18.985  0.00  0.00    +0.009 A 
ATOM     17  C   UNL     1      42.579  20.289  19.551  0.00  0.00    +0.047 A 
BRANCH  13  14
ATOM     14  O   UNL     1      39.374  20.622  17.862  0.00  0.00    -0.497 OA
ATOM     15  H   UNL     1      38.652  20.530  18.498  0.00  0.00    +0.394 HD
ENDBRANCH  13  14
ENDBRANCH   9  10
ENDBRANCH   8   9
ENDBRANCH   7   8
ENDBRANCH   6   7
TORSDOF 7
ENDMDL
MODEL 2
REMARK VINA RESULT:      -7.3      2.240      3.424
REMARK  Name = ZINC95486111
REMARK  13 active torsions:
REMARK  status: ('A' for Active; 'I' for Inactive)
REMARK    1  A    between atoms: C1_1  and  C2_2
REMARK    2  A    between atoms: C6_7  and  C29_36
REMARK    3  A    between atoms: C6_7  and  O4_37
REMARK    4  A    between atoms: C9_10  and  O3_35
REMARK    5  A    between atoms: C10_12  and  C28_34
REMARK    6  A    between atoms: C14_17  and  C27_33
REMARK    7  A    between atoms: C18_21  and  C26_30
REMARK    8  A    between atoms: C21_25  and  C24_28
REMARK    9  A    between atoms: C21_25  and  C25_29
REMARK   10  A    between atoms: O4_37  and  C30_38
REMARK   11  A    between atoms: C30_38  and  O6_40
REMARK   12  A    between atoms: O6_40  and  C31_41
REMARK   13  A    between atoms: C34_44  and  O7_47
REMARK                            x       y       z     vdW  Elec       q    Type
REMARK                         _______ _______ _______ _____ _____    ______ ____
ROOT
ATOM      1  C   UNL     1      48.688  16.360  17.263  0.00  0.00    +0.032 C 
ATOM      2  C   UNL     1      48.914  16.212  18.779  0.00  0.00    +0.002 C 
ATOM      3  C   UNL     1      49.389  17.547  19.354  0.00  0.00    +0.017 C 
ATOM      4  C   UNL     1      48.232  18.556  19.369  0.00  0.00    +0.020 C 
ATOM      5  C   UNL     1      47.098  18.003  20.227  0.00  0.00    +0.031 C 
ATOM      6  C   UNL     1      46.048  19.048  20.547  0.00  0.00    +0.151 C 
ATOM     19  C   UNL     1      46.695  20.202  21.336  0.00  0.00    +0.034 C 
ATOM     20  C   UNL     1      44.957  18.437  21.431  0.00  0.00    +0.022 C 
ATOM     21  C   UNL     1      44.347  17.231  20.731  0.00  0.00    -0.015 C 
ATOM     22  C   UNL     1      45.416  16.164  20.474  0.00  0.00    +0.170 C 
ATOM     25  C   UNL     1      46.533  16.729  19.585  0.00  0.00    -0.028 C 
ATOM     26  C   UNL     1      45.933  16.998  18.209  0.00  0.00    +0.044 C 
ATOM     27  C   UNL     1      50.035  15.187  18.927  0.00  0.00    -0.113 C 
ATOM     28  C   UNL     1      51.195  15.512  18.416  0.00  0.00    -0.016 C 
ATOM     29  C   UNL     1      52.342  14.536  18.392  0.00  0.00    +0.048 C 
ATOM     30  C   UNL     1      51.721  13.146  18.184  0.00  0.00    -0.112 C 
ATOM     34  C   UNL     1      50.868  12.839  19.409  0.00  0.00    +0.020 C 
ATOM     35  C   UNL     1      51.729  12.686  20.652  0.00  0.00    +0.016 C 
ATOM     36  C   UNL     1      52.887  11.703  20.467  0.00  0.00    -0.065 C 
ATOM     37  C   UNL     1      52.350  10.277  20.357  0.00  0.00    +0.017 C 
ATOM     38  C   UNL     1      53.797  11.788  21.703  0.00  0.00    +0.006 C 
ATOM     39  C   UNL     1      53.716  12.056  19.236  0.00  0.00    +0.002 C 
ATOM     40  C   UNL     1      52.825  12.107  17.999  0.00  0.00    +0.013 C 
ATOM     41  C   UNL     1      49.770  13.886  19.612  0.00  0.00    +0.013 C 
ATOM     42  C   UNL     1      49.685  14.136  21.123  0.00  0.00    +0.004 C 
ATOM     43  C   UNL     1      48.430  13.317  19.159  0.00  0.00    +0.010 C 
ATOM     44  C   UNL     1      47.289  14.326  19.138  0.00  0.00    +0.024 C 
ATOM     45  C   UNL     1      47.690  15.727  19.534  0.00  0.00    +0.002 C 
ENDROOT
BRANCH  30  31
ATOM     31  C   UNL     1      50.873  13.148  16.935  0.00  0.00    +0.514 C 
ATOM     32  O   UNL     1      51.111  13.938  16.038  0.00  0.00    -0.703 OA
ATOM     33  O   UNL     1      49.950  12.359  16.824  0.00  0.00    -0.687 OA
ENDBRANCH  30  31
BRANCH  22  23
ATOM     23  O   UNL     1      44.772  15.082  19.783  0.00  0.00    -0.551 OA
ATOM     24  H   UNL     1      44.060  14.662  20.286  0.00  0.00    +0.367 HD
ENDBRANCH  22  23
BRANCH   6   7
ATOM      7  O   UNL     1      45.464  19.589  19.361  0.00  0.00    -0.293 OA
BRANCH   7   8
ATOM      8  C   UNL     1      45.110  20.887  19.390  0.00  0.00    +0.599 C 
ATOM     18  O   UNL     1      45.742  21.702  18.750  0.00  0.00    -0.528 OA
BRANCH   8   9
ATOM      9  O   UNL     1      44.057  21.280  20.129  0.00  0.00    -0.267 OA
BRANCH   9  10
ATOM     10  C   UNL     1      42.825  21.248  19.553  0.00  0.00    +0.088 A 
ATOM     11  C   UNL     1      42.281  22.405  19.015  0.00  0.00    +0.038 A 
ATOM     12  C   UNL     1      41.031  22.372  18.429  0.00  0.00    +0.008 A 
ATOM     13  C   UNL     1      40.319  21.183  18.380  0.00  0.00    +0.114 A 
ATOM     16  C   UNL     1      40.862  20.027  18.919  0.00  0.00    +0.009 A 
ATOM     17  C   UNL     1      42.115  20.058  19.500  0.00  0.00    +0.047 A 
BRANCH  13  14
ATOM     14  O   UNL     1      39.087  21.151  17.804  0.00  0.00    -0.497 OA
ATOM     15  H   UNL     1      38.520  20.439  18.127  0.00  0.00    +0.394 HD
ENDBRANCH  13  14
ENDBRANCH   9  10
ENDBRANCH   8   9
ENDBRANCH   7   8
ENDBRANCH   6   7
TORSDOF 7
ENDMDL
MODEL 3
REMARK VINA RESULT:      -6.8      1.717      2.221
REMARK  Name = ZINC95486111
REMARK  13 active torsions:
REMARK  status: ('A' for Active; 'I' for Inactive)
REMARK    1  A    between atoms: C1_1  and  C2_2
REMARK    2  A    between atoms: C6_7  and  C29_36
REMARK    3  A    between atoms: C6_7  and  O4_37
REMARK    4  A    between atoms: C9_10  and  O3_35
REMARK    5  A    between atoms: C10_12  and  C28_34
REMARK    6  A    between atoms: C14_17  and  C27_33
REMARK    7  A    between atoms: C18_21  and  C26_30
REMARK    8  A    between atoms: C21_25  and  C24_28
REMARK    9  A    between atoms: C21_25  and  C25_29
REMARK   10  A    between atoms: O4_37  and  C30_38
REMARK   11  A    between atoms: C30_38  and  O6_40
REMARK   12  A    between atoms: O6_40  and  C31_41
REMARK   13  A    between atoms: C34_44  and  O7_47
REMARK                            x       y       z     vdW  Elec       q    Type
REMARK                         _______ _______ _______ _____ _____    ______ ____
ROOT
ATOM      1  C   UNL     1      46.963  15.460  19.368  0.00  0.00    +0.032 C 
ATOM      2  C   UNL     1      48.204  15.856  18.548  0.00  0.00    +0.002 C 
ATOM      3  C   UNL     1      47.889  17.100  17.717  0.00  0.00    +0.017 C 
ATOM      4  C   UNL     1      47.787  18.331  18.630  0.00  0.00    +0.020 C 
ATOM      5  C   UNL     1      49.113  18.524  19.359  0.00  0.00    +0.031 C 
ATOM      6  C   UNL     1      49.209  19.873  20.043  0.00  0.00    +0.151 C 
ATOM     19  C   UNL     1      49.102  20.993  18.990  0.00  0.00    +0.034 C 
ATOM     20  C   UNL     1      50.571  20.013  20.729  0.00  0.00    +0.022 C 
ATOM     21  C   UNL     1      50.766  18.872  21.718  0.00  0.00    -0.015 C 
ATOM     22  C   UNL     1      50.724  17.523  20.994  0.00  0.00    +0.170 C 
ATOM     25  C   UNL     1      49.372  17.334  20.291  0.00  0.00    -0.028 C 
ATOM     26  C   UNL     1      48.306  17.210  21.373  0.00  0.00    +0.044 C 
ATOM     27  C   UNL     1      48.460  14.686  17.601  0.00  0.00    -0.113 C 
ATOM     28  C   UNL     1      47.518  14.422  16.732  0.00  0.00    -0.016 C 
ATOM     29  C   UNL     1      47.601  13.220  15.828  0.00  0.00    +0.048 C 
ATOM     30  C   UNL     1      48.290  12.115  16.643  0.00  0.00    -0.112 C 
ATOM     34  C   UNL     1      49.711  12.581  16.936  0.00  0.00    +0.020 C 
ATOM     35  C   UNL     1      50.530  12.675  15.660  0.00  0.00    +0.016 C 
ATOM     36  C   UNL     1      50.480  11.401  14.814  0.00  0.00    -0.065 C 
ATOM     37  C   UNL     1      51.241  10.278  15.518  0.00  0.00    +0.017 C 
ATOM     38  C   UNL     1      51.166  11.686  13.468  0.00  0.00    +0.006 C 
ATOM     39  C   UNL     1      49.041  10.980  14.540  0.00  0.00    +0.002 C 
ATOM     40  C   UNL     1      48.283  10.808  15.853  0.00  0.00    +0.013 C 
ATOM     41  C   UNL     1      49.726  13.901  17.712  0.00  0.00    +0.013 C 
ATOM     42  C   UNL     1      50.872  14.733  17.126  0.00  0.00    +0.004 C 
ATOM     43  C   UNL     1      50.050  13.629  19.177  0.00  0.00    +0.010 C 
ATOM     44  C   UNL     1      49.913  14.841  20.090  0.00  0.00    +0.024 C 
ATOM     45  C   UNL     1      49.443  16.095  19.392  0.00  0.00    +0.002 C 
ENDROOT
BRANCH  30  31
ATOM     31  C   UNL     1      47.533  11.882  17.928  0.00  0.00    +0.514 C 
ATOM     32  O   UNL     1      48.101  11.395  18.890  0.00  0.00    -0.703 OA
ATOM     33  O   UNL     1      46.353  12.181  18.004  0.00  0.00    -0.687 OA
ENDBRANCH  30  31
BRANCH  22  23
ATOM     23  O   UNL     1      50.878  16.504  21.994  0.00  0.00    -0.551 OA
ATOM     24  H   UNL     1      51.770  16.448  22.365  0.00  0.00    +0.367 HD
ENDBRANCH  22  23
BRANCH   6   7
ATOM      7  O   UNL     1      48.164  20.055  21.000  0.00  0.00    -0.293 OA
BRANCH   7   8
ATOM      8  C   UNL     1      47.840  21.322  21.317  0.00  0.00    +0.599 C 
ATOM     18  O   UNL     1      48.456  21.907  22.184  0.00  0.00    -0.528 OA
BRANCH   8   9
ATOM      9  O   UNL     1      46.833  21.940  20.672  0.00  0.00    -0.267 OA
BRANCH   9  10
ATOM     10  C   UNL     1      45.699  21.231  20.429  0.00  0.00    +0.088 A 
ATOM     11  C   UNL     1      44.943  20.748  21.488  0.00  0.00    +0.038 A 
ATOM     12  C   UNL     1      43.791  20.028  21.241  0.00  0.00    +0.008 A 
ATOM     13  C   UNL     1      43.390  19.787  19.936  0.00  0.00    +0.114 A 
ATOM     16  C   UNL     1      44.145  20.269  18.878  0.00  0.00    +0.009 A 
ATOM     17  C   UNL     1      45.294  20.994  19.124  0.00  0.00    +0.047 A 
BRANCH  13  14
ATOM     14  O   UNL     1      42.254  19.077  19.694  0.00  0.00    -0.497 OA
ATOM     15  H   UNL     1      42.168  18.773  18.781  0.00  0.00    +0.394 HD
ENDBRANCH  13  14
ENDBRANCH   9  10
ENDBRANCH   8   9
ENDBRANCH   7   8
ENDBRANCH   6   7
TORSDOF 7
ENDMDL
MODEL 4
REMARK VINA RESULT:      -6.7      2.381      9.269
REMARK  Name = ZINC95486111
REMARK  13 active torsions:
REMARK  status: ('A' for Active; 'I' for Inactive)
REMARK    1  A    between atoms: C1_1  and  C2_2
REMARK    2  A    between atoms: C6_7  and  C29_36
REMARK    3  A    between atoms: C6_7  and  O4_37
REMARK    4  A    between atoms: C9_10  and  O3_35
REMARK    5  A    between atoms: C10_12  and  C28_34
REMARK    6  A    between atoms: C14_17  and  C27_33
REMARK    7  A    between atoms: C18_21  and  C26_30
REMARK    8  A    between atoms: C21_25  and  C24_28
REMARK    9  A    between atoms: C21_25  and  C25_29
REMARK   10  A    between atoms: O4_37  and  C30_38
REMARK   11  A    between atoms: C30_38  and  O6_40
REMARK   12  A    between atoms: O6_40  and  C31_41
REMARK   13  A    between atoms: C34_44  and  O7_47
REMARK                            x       y       z     vdW  Elec       q    Type
REMARK                         _______ _______ _______ _____ _____    ______ ____
ROOT
ATOM      1  C   UNL     1      45.373  15.631  20.560  0.00  0.00    +0.032 C 
ATOM      2  C   UNL     1      46.627  16.504  20.371  0.00  0.00    +0.002 C 
ATOM      3  C   UNL     1      47.727  16.027  21.319  0.00  0.00    +0.017 C 
ATOM      4  C   UNL     1      48.285  14.679  20.843  0.00  0.00    +0.020 C 
ATOM      5  C   UNL     1      48.856  14.843  19.437  0.00  0.00    +0.031 C 
ATOM      6  C   UNL     1      49.693  13.654  19.008  0.00  0.00    +0.151 C 
ATOM     19  C   UNL     1      50.887  13.492  19.968  0.00  0.00    +0.034 C 
ATOM     20  C   UNL     1      50.258  13.895  17.605  0.00  0.00    +0.022 C 
ATOM     21  C   UNL     1      49.116  14.153  16.632  0.00  0.00    -0.015 C 
ATOM     22  C   UNL     1      48.323  15.394  17.054  0.00  0.00    +0.170 C 
ATOM     25  C   UNL     1      47.731  15.199  18.458  0.00  0.00    -0.028 C 
ATOM     26  C   UNL     1      46.682  14.097  18.364  0.00  0.00    +0.044 C 
ATOM     27  C   UNL     1      46.208  17.916  20.776  0.00  0.00    -0.113 C 
ATOM     28  C   UNL     1      45.834  18.079  22.019  0.00  0.00    -0.016 C 
ATOM     29  C   UNL     1      45.284  19.395  22.505  0.00  0.00    +0.048 C 
ATOM     30  C   UNL     1      44.492  19.990  21.332  0.00  0.00    -0.112 C 
ATOM     34  C   UNL     1      45.483  20.281  20.211  0.00  0.00    +0.020 C 
ATOM     35  C   UNL     1      46.453  21.381  20.609  0.00  0.00    +0.016 C 
ATOM     36  C   UNL     1      45.757  22.639  21.134  0.00  0.00    -0.065 C 
ATOM     37  C   UNL     1      45.029  23.348  19.993  0.00  0.00    +0.017 C 
ATOM     38  C   UNL     1      46.829  23.589  21.693  0.00  0.00    +0.006 C 
ATOM     39  C   UNL     1      44.783  22.299  22.258  0.00  0.00    +0.002 C 
ATOM     40  C   UNL     1      43.773  21.260  21.783  0.00  0.00    +0.013 C 
ATOM     41  C   UNL     1      46.222  19.015  19.765  0.00  0.00    +0.013 C 
ATOM     42  C   UNL     1      47.675  19.431  19.513  0.00  0.00    +0.004 C 
ATOM     43  C   UNL     1      45.641  18.524  18.444  0.00  0.00    +0.010 C 
ATOM     44  C   UNL     1      46.167  17.169  17.989  0.00  0.00    +0.024 C 
ATOM     45  C   UNL     1      47.145  16.527  18.944  0.00  0.00    +0.002 C 
ENDROOT
BRANCH  30  31
ATOM     31  C   UNL     1      43.445  19.005  20.871  0.00  0.00    +0.514 C 
ATOM     32  O   UNL     1      43.060  18.128  21.624  0.00  0.00    -0.703 OA
ATOM     33  O   UNL     1      42.985  19.087  19.745  0.00  0.00    -0.687 OA
ENDBRANCH  30  31
BRANCH  22  23
ATOM     23  O   UNL     1      47.249  15.546  16.112  0.00  0.00    -0.551 OA
ATOM     24  H   UNL     1      46.660  16.289  16.304  0.00  0.00    +0.367 HD
ENDBRANCH  22  23
BRANCH   6   7
ATOM      7  O   UNL     1      48.937  12.443  19.025  0.00  0.00    -0.293 OA
BRANCH   7   8
ATOM      8  C   UNL     1      49.630  11.290  19.066  0.00  0.00    +0.599 C 
ATOM     18  O   UNL     1      50.189  10.955  20.091  0.00  0.00    -0.528 OA
BRANCH   8   9
ATOM      9  O   UNL     1      49.703  10.509  17.973  0.00  0.00    -0.267 OA
BRANCH   9  10
ATOM     10  C   UNL     1      48.677  10.560  17.082  0.00  0.00    +0.088 A 
ATOM     11  C   UNL     1      48.929  10.872  15.753  0.00  0.00    +0.038 A 
ATOM     12  C   UNL     1      47.887  10.923  14.848  0.00  0.00    +0.008 A 
ATOM     13  C   UNL     1      46.590  10.664  15.266  0.00  0.00    +0.114 A 
ATOM     16  C   UNL     1      46.339  10.353  16.594  0.00  0.00    +0.009 A 
ATOM     17  C   UNL     1      47.381  10.296  17.499  0.00  0.00    +0.047 A 
BRANCH  13  14
ATOM     14  O   UNL     1      45.565  10.715  14.374  0.00  0.00    -0.497 OA
ATOM     15  H   UNL     1      45.593  10.021  13.702  0.00  0.00    +0.394 HD
ENDBRANCH  13  14
ENDBRANCH   9  10
ENDBRANCH   8   9
ENDBRANCH   7   8
ENDBRANCH   6   7
TORSDOF 7
ENDMDL
MODEL 5
REMARK VINA RESULT:      -6.6      2.292      9.914
REMARK  Name = ZINC95486111
REMARK  13 active torsions:
REMARK  status: ('A' for Active; 'I' for Inactive)
REMARK    1  A    between atoms: C1_1  and  C2_2
REMARK    2  A    between atoms: C6_7  and  C29_36
REMARK    3  A    between atoms: C6_7  and  O4_37
REMARK    4  A    between atoms: C9_10  and  O3_35
REMARK    5  A    between atoms: C10_12  and  C28_34
REMARK    6  A    between atoms: C14_17  and  C27_33
REMARK    7  A    between atoms: C18_21  and  C26_30
REMARK    8  A    between atoms: C21_25  and  C24_28
REMARK    9  A    between atoms: C21_25  and  C25_29
REMARK   10  A    between atoms: O4_37  and  C30_38
REMARK   11  A    between atoms: C30_38  and  O6_40
REMARK   12  A    between atoms: O6_40  and  C31_41
REMARK   13  A    between atoms: C34_44  and  O7_47
REMARK                            x       y       z     vdW  Elec       q    Type
REMARK                         _______ _______ _______ _____ _____    ______ ____
ROOT
ATOM      1  C   UNL     1      45.352  15.556  20.576  0.00  0.00    +0.032 C 
ATOM      2  C   UNL     1      46.578  16.445  20.303  0.00  0.00    +0.002 C 
ATOM      3  C   UNL     1      47.743  15.990  21.182  0.00  0.00    +0.017 C 
ATOM      4  C   UNL     1      48.289  14.646  20.678  0.00  0.00    +0.020 C 
ATOM      5  C   UNL     1      48.768  14.810  19.238  0.00  0.00    +0.031 C 
ATOM      6  C   UNL     1      49.593  13.632  18.762  0.00  0.00    +0.151 C 
ATOM     19  C   UNL     1      50.848  13.492  19.645  0.00  0.00    +0.034 C 
ATOM     20  C   UNL     1      50.064  13.872  17.325  0.00  0.00    +0.022 C 
ATOM     21  C   UNL     1      48.859  14.109  16.425  0.00  0.00    -0.015 C 
ATOM     22  C   UNL     1      48.076  15.340  16.891  0.00  0.00    +0.170 C 
ATOM     25  C   UNL     1      47.578  15.145  18.330  0.00  0.00    -0.028 C 
ATOM     26  C   UNL     1      46.541  14.028  18.309  0.00  0.00    +0.044 C 
ATOM     27  C   UNL     1      46.165  17.853  20.727  0.00  0.00    -0.113 C 
ATOM     28  C   UNL     1      45.869  18.018  21.991  0.00  0.00    -0.016 C 
ATOM     29  C   UNL     1      45.332  19.329  22.505  0.00  0.00    +0.048 C 
ATOM     30  C   UNL     1      44.458  19.906  21.382  0.00  0.00    -0.112 C 
ATOM     34  C   UNL     1      45.372  20.204  20.199  0.00  0.00    +0.020 C 
ATOM     35  C   UNL     1      46.349  21.320  20.529  0.00  0.00    +0.016 C 
ATOM     36  C   UNL     1      45.670  22.571  21.091  0.00  0.00    -0.065 C 
ATOM     37  C   UNL     1      44.860  23.263  19.995  0.00  0.00    +0.017 C 
ATOM     38  C   UNL     1      46.761  23.540  21.576  0.00  0.00    +0.006 C 
ATOM     39  C   UNL     1      44.775  22.224  22.276  0.00  0.00    +0.002 C 
ATOM     40  C   UNL     1      43.751  21.168  21.872  0.00  0.00    +0.013 C 
ATOM     41  C   UNL     1      46.099  18.947  19.713  0.00  0.00    +0.013 C 
ATOM     42  C   UNL     1      47.528  19.382  19.366  0.00  0.00    +0.004 C 
ATOM     43  C   UNL     1      45.443  18.440  18.434  0.00  0.00    +0.010 C 
ATOM     44  C   UNL     1      45.959  17.089  17.953  0.00  0.00    +0.024 C 
ATOM     45  C   UNL     1      47.004  16.468  18.847  0.00  0.00    +0.002 C 
ENDROOT
BRANCH  30  31
ATOM     31  C   UNL     1      43.399  18.904  20.993  0.00  0.00    +0.514 C 
ATOM     32  O   UNL     1      42.867  18.973  19.899  0.00  0.00    -0.703 OA
ATOM     33  O   UNL     1      43.075  18.025  21.773  0.00  0.00    -0.687 OA
ENDBRANCH  30  31
BRANCH  22  23
ATOM     23  O   UNL     1      46.943  15.472  16.018  0.00  0.00    -0.551 OA
ATOM     24  H   UNL     1      47.155  15.846  15.152  0.00  0.00    +0.367 HD
ENDBRANCH  22  23
BRANCH   6   7
ATOM      7  O   UNL     1      48.857  12.409  18.833  0.00  0.00    -0.293 OA
BRANCH   7   8
ATOM      8  C   UNL     1      49.492  11.343  19.351  0.00  0.00    +0.599 C 
ATOM     18  O   UNL     1      49.821  11.341  20.520  0.00  0.00    -0.528 OA
BRANCH   8   9
ATOM      9  O   UNL     1      49.762  10.278  18.574  0.00  0.00    -0.267 OA
BRANCH   9  10
ATOM     10  C   UNL     1      50.677  10.429  17.579  0.00  0.00    +0.088 A 
ATOM     11  C   UNL     1      52.024  10.550  17.889  0.00  0.00    +0.038 A 
ATOM     12  C   UNL     1      52.953  10.702  16.878  0.00  0.00    +0.008 A 
ATOM     13  C   UNL     1      52.540  10.736  15.555  0.00  0.00    +0.114 A 
ATOM     16  C   UNL     1      51.193  10.616  15.246  0.00  0.00    +0.009 A 
ATOM     17  C   UNL     1      50.265  10.457  16.256  0.00  0.00    +0.047 A 
BRANCH  13  14
ATOM     14  O   UNL     1      53.455  10.887  14.560  0.00  0.00    -0.497 OA
ATOM     15  H   UNL     1      53.069  10.945  13.676  0.00  0.00    +0.394 HD
ENDBRANCH  13  14
ENDBRANCH   9  10
ENDBRANCH   8   9
ENDBRANCH   7   8
ENDBRANCH   6   7
TORSDOF 7
ENDMDL
MODEL 6
REMARK VINA RESULT:      -6.6      1.990      2.799
REMARK  Name = ZINC95486111
REMARK  13 active torsions:
REMARK  status: ('A' for Active; 'I' for Inactive)
REMARK    1  A    between atoms: C1_1  and  C2_2
REMARK    2  A    between atoms: C6_7  and  C29_36
REMARK    3  A    between atoms: C6_7  and  O4_37
REMARK    4  A    between atoms: C9_10  and  O3_35
REMARK    5  A    between atoms: C10_12  and  C28_34
REMARK    6  A    between atoms: C14_17  and  C27_33
REMARK    7  A    between atoms: C18_21  and  C26_30
REMARK    8  A    between atoms: C21_25  and  C24_28
REMARK    9  A    between atoms: C21_25  and  C25_29
REMARK   10  A    between atoms: O4_37  and  C30_38
REMARK   11  A    between atoms: C30_38  and  O6_40
REMARK   12  A    between atoms: O6_40  and  C31_41
REMARK   13  A    between atoms: C34_44  and  O7_47
REMARK                            x       y       z     vdW  Elec       q    Type
REMARK                         _______ _______ _______ _____ _____    ______ ____
ROOT
ATOM      1  C   UNL     1      47.125  14.213  17.759  0.00  0.00    +0.032 C 
ATOM      2  C   UNL     1      48.218  14.835  18.646  0.00  0.00    +0.002 C 
ATOM      3  C   UNL     1      48.547  16.239  18.139  0.00  0.00    +0.017 C 
ATOM      4  C   UNL     1      47.390  17.197  18.456  0.00  0.00    +0.020 C 
ATOM      5  C   UNL     1      47.172  17.235  19.966  0.00  0.00    +0.031 C 
ATOM      6  C   UNL     1      46.264  18.371  20.394  0.00  0.00    +0.151 C 
ATOM     19  C   UNL     1      46.898  19.717  19.991  0.00  0.00    +0.034 C 
ATOM     20  C   UNL     1      46.111  18.370  21.917  0.00  0.00    +0.022 C 
ATOM     21  C   UNL     1      45.571  17.022  22.376  0.00  0.00    -0.015 C 
ATOM     22  C   UNL     1      46.536  15.898  21.985  0.00  0.00    +0.170 C 
ATOM     25  C   UNL     1      46.720  15.856  20.461  0.00  0.00    -0.028 C 
ATOM     26  C   UNL     1      45.388  15.436  19.850  0.00  0.00    +0.044 C 
ATOM     27  C   UNL     1      49.448  13.947  18.464  0.00  0.00    -0.113 C 
ATOM     28  C   UNL     1      49.949  13.886  17.257  0.00  0.00    -0.016 C 
ATOM     29  C   UNL     1      51.084  12.952  16.926  0.00  0.00    +0.048 C 
ATOM     30  C   UNL     1      50.873  11.696  17.785  0.00  0.00    -0.112 C 
ATOM     34  C   UNL     1      51.015  12.110  19.245  0.00  0.00    +0.020 C 
ATOM     35  C   UNL     1      52.438  12.545  19.555  0.00  0.00    +0.016 C 
ATOM     36  C   UNL     1      53.490  11.524  19.117  0.00  0.00    -0.065 C 
ATOM     37  C   UNL     1      53.409  10.279  20.001  0.00  0.00    +0.017 C 
ATOM     38  C   UNL     1      54.881  12.155  19.290  0.00  0.00    +0.006 C 
ATOM     39  C   UNL     1      53.313  11.147  17.650  0.00  0.00    +0.002 C 
ATOM     40  C   UNL     1      51.898  10.630  17.406  0.00  0.00    +0.013 C 
ATOM     41  C   UNL     1      50.001  13.193  19.628  0.00  0.00    +0.013 C 
ATOM     42  C   UNL     1      50.744  14.176  20.541  0.00  0.00    +0.004 C 
ATOM     43  C   UNL     1      48.870  12.569  20.437  0.00  0.00    +0.010 C 
ATOM     44  C   UNL     1      47.705  13.509  20.721  0.00  0.00    +0.024 C 
ATOM     45  C   UNL     1      47.854  14.886  20.118  0.00  0.00    +0.002 C 
ENDROOT
BRANCH  30  31
ATOM     31  C   UNL     1      49.498  11.128  17.527  0.00  0.00    +0.514 C 
ATOM     32  O   UNL     1      48.882  11.453  16.528  0.00  0.00    -0.703 OA
ATOM     33  O   UNL     1      49.005  10.343  18.319  0.00  0.00    -0.687 OA
ENDBRANCH  30  31
BRANCH  22  23
ATOM     23  O   UNL     1      45.941  14.665  22.418  0.00  0.00    -0.551 OA
ATOM     24  H   UNL     1      46.413  13.875  22.121  0.00  0.00    +0.367 HD
ENDBRANCH  22  23
BRANCH   6   7
ATOM      7  O   UNL     1      44.978  18.279  19.777  0.00  0.00    -0.293 OA
BRANCH   7   8
ATOM      8  C   UNL     1      44.128  19.302  19.982  0.00  0.00    +0.599 C 
ATOM     18  O   UNL     1      43.597  19.441  21.065  0.00  0.00    -0.528 OA
BRANCH   8   9
ATOM      9  O   UNL     1      43.868  20.170  18.987  0.00  0.00    -0.267 OA
BRANCH   9  10
ATOM     10  C   UNL     1      42.568  20.481  18.736  0.00  0.00    +0.088 A 
ATOM     11  C   UNL     1      42.117  21.780  18.925  0.00  0.00    +0.038 A 
ATOM     12  C   UNL     1      40.798  22.096  18.669  0.00  0.00    +0.008 A 
ATOM     13  C   UNL     1      39.923  21.117  18.224  0.00  0.00    +0.114 A 
ATOM     16  C   UNL     1      40.373  19.819  18.035  0.00  0.00    +0.009 A 
ATOM     17  C   UNL     1      41.694  19.503  18.285  0.00  0.00    +0.047 A 
BRANCH  13  14
ATOM     14  O   UNL     1      38.623  21.429  17.972  0.00  0.00    -0.497 OA
ATOM     15  H   UNL     1      38.199  21.941  18.673  0.00  0.00    +0.394 HD
ENDBRANCH  13  14
ENDBRANCH   9  10
ENDBRANCH   8   9
ENDBRANCH   7   8
ENDBRANCH   6   7
TORSDOF 7
ENDMDL
MODEL 7
REMARK VINA RESULT:      -6.4      2.505      9.612
REMARK  Name = ZINC95486111
REMARK  13 active torsions:
REMARK  status: ('A' for Active; 'I' for Inactive)
REMARK    1  A    between atoms: C1_1  and  C2_2
REMARK    2  A    between atoms: C6_7  and  C29_36
REMARK    3  A    between atoms: C6_7  and  O4_37
REMARK    4  A    between atoms: C9_10  and  O3_35
REMARK    5  A    between atoms: C10_12  and  C28_34
REMARK    6  A    between atoms: C14_17  and  C27_33
REMARK    7  A    between atoms: C18_21  and  C26_30
REMARK    8  A    between atoms: C21_25  and  C24_28
REMARK    9  A    between atoms: C21_25  and  C25_29
REMARK   10  A    between atoms: O4_37  and  C30_38
REMARK   11  A    between atoms: C30_38  and  O6_40
REMARK   12  A    between atoms: O6_40  and  C31_41
REMARK   13  A    between atoms: C34_44  and  O7_47
REMARK                            x       y       z     vdW  Elec       q    Type
REMARK                         _______ _______ _______ _____ _____    ______ ____
ROOT
ATOM      1  C   UNL     1      49.340  16.408  19.714  0.00  0.00    +0.032 C 
ATOM      2  C   UNL     1      48.133  16.728  18.814  0.00  0.00    +0.002 C 
ATOM      3  C   UNL     1      48.572  16.709  17.349  0.00  0.00    +0.017 C 
ATOM      4  C   UNL     1      48.845  15.267  16.900  0.00  0.00    +0.020 C 
ATOM      5  C   UNL     1      47.571  14.442  17.064  0.00  0.00    +0.031 C 
ATOM      6  C   UNL     1      47.656  13.098  16.370  0.00  0.00    +0.151 C 
ATOM     19  C   UNL     1      47.868  13.312  14.858  0.00  0.00    +0.034 C 
ATOM     20  C   UNL     1      46.340  12.336  16.548  0.00  0.00    +0.022 C 
ATOM     21  C   UNL     1      46.038  12.179  18.032  0.00  0.00    -0.015 C 
ATOM     22  C   UNL     1      45.898  13.550  18.699  0.00  0.00    +0.170 C 
ATOM     25  C   UNL     1      47.198  14.354  18.549  0.00  0.00    -0.028 C 
ATOM     26  C   UNL     1      48.270  13.647  19.369  0.00  0.00    +0.044 C 
ATOM     27  C   UNL     1      47.714  18.150  19.182  0.00  0.00    -0.113 C 
ATOM     28  C   UNL     1      48.593  19.093  18.961  0.00  0.00    -0.016 C 
ATOM     29  C   UNL     1      48.343  20.514  19.394  0.00  0.00    +0.048 C 
ATOM     30  C   UNL     1      47.550  20.431  20.707  0.00  0.00    -0.112 C 
ATOM     34  C   UNL     1      46.203  19.793  20.389  0.00  0.00    +0.020 C 
ATOM     35  C   UNL     1      45.366  20.696  19.498  0.00  0.00    +0.016 C 
ATOM     36  C   UNL     1      45.240  22.124  20.033  0.00  0.00    -0.065 C 
ATOM     37  C   UNL     1      44.370  22.135  21.290  0.00  0.00    +0.017 C 
ATOM     38  C   UNL     1      44.557  22.987  18.960  0.00  0.00    +0.006 C 
ATOM     39  C   UNL     1      46.611  22.722  20.329  0.00  0.00    +0.002 C 
ATOM     40  C   UNL     1      47.378  21.829  21.299  0.00  0.00    +0.013 C 
ATOM     41  C   UNL     1      46.367  18.398  19.777  0.00  0.00    +0.013 C 
ATOM     42  C   UNL     1      45.312  18.285  18.670  0.00  0.00    +0.004 C 
ATOM     43  C   UNL     1      46.053  17.340  20.829  0.00  0.00    +0.010 C 
ATOM     44  C   UNL     1      46.358  15.911  20.397  0.00  0.00    +0.024 C 
ATOM     45  C   UNL     1      46.956  15.792  19.015  0.00  0.00    +0.002 C 
ENDROOT
BRANCH  30  31
ATOM     31  C   UNL     1      48.308  19.595  21.709  0.00  0.00    +0.514 C 
ATOM     32  O   UNL     1      49.526  19.615  21.722  0.00  0.00    -0.703 OA
ATOM     33  O   UNL     1      47.701  18.898  22.505  0.00  0.00    -0.687 OA
ENDBRANCH  30  31
BRANCH  22  23
ATOM     23  O   UNL     1      45.651  13.316  20.094  0.00  0.00    -0.551 OA
ATOM     24  H   UNL     1      45.721  14.109  20.644  0.00  0.00    +0.367 HD
ENDBRANCH  22  23
BRANCH   6   7
ATOM      7  O   UNL     1      48.741  12.314  16.867  0.00  0.00    -0.293 OA
BRANCH   7   8
ATOM      8  C   UNL     1      49.194  11.325  16.076  0.00  0.00    +0.599 C 
ATOM     18  O   UNL     1      48.424  10.489  15.649  0.00  0.00    -0.528 OA
BRANCH   8   9
ATOM      9  O   UNL     1      50.500  11.262  15.758  0.00  0.00    -0.267 OA
BRANCH   9  10
ATOM     10  C   UNL     1      50.922  11.941  14.657  0.00  0.00    +0.088 A 
ATOM     11  C   UNL     1      51.656  13.110  14.804  0.00  0.00    +0.038 A 
ATOM     12  C   UNL     1      52.085  13.799  13.687  0.00  0.00    +0.008 A 
ATOM     13  C   UNL     1      51.783  13.324  12.420  0.00  0.00    +0.114 A 
ATOM     16  C   UNL     1      51.050  12.156  12.273  0.00  0.00    +0.009 A 
ATOM     17  C   UNL     1      50.625  11.463  13.390  0.00  0.00    +0.047 A 
BRANCH  13  14
ATOM     14  O   UNL     1      52.206  14.003  11.320  0.00  0.00    -0.497 OA
ATOM     15  H   UNL     1      52.433  13.437  10.571  0.00  0.00    +0.394 HD
ENDBRANCH  13  14
ENDBRANCH   9  10
ENDBRANCH   8   9
ENDBRANCH   7   8
ENDBRANCH   6   7
TORSDOF 7
ENDMDL
MODEL 8
REMARK VINA RESULT:      -6.4      3.049     10.070
REMARK  Name = ZINC95486111
REMARK  13 active torsions:
REMARK  status: ('A' for Active; 'I' for Inactive)
REMARK    1  A    between atoms: C1_1  and  C2_2
REMARK    2  A    between atoms: C6_7  and  C29_36
REMARK    3  A    between atoms: C6_7  and  O4_37
REMARK    4  A    between atoms: C9_10  and  O3_35
REMARK    5  A    between atoms: C10_12  and  C28_34
REMARK    6  A    between atoms: C14_17  and  C27_33
REMARK    7  A    between atoms: C18_21  and  C26_30
REMARK    8  A    between atoms: C21_25  and  C24_28
REMARK    9  A    between atoms: C21_25  and  C25_29
REMARK   10  A    between atoms: O4_37  and  C30_38
REMARK   11  A    between atoms: C30_38  and  O6_40
REMARK   12  A    between atoms: O6_40  and  C31_41
REMARK   13  A    between atoms: C34_44  and  O7_47
REMARK                            x       y       z     vdW  Elec       q    Type
REMARK                         _______ _______ _______ _____ _____    ______ ____
ROOT
ATOM      1  C   UNL     1      49.386  17.914  19.267  0.00  0.00    +0.032 C 
ATOM      2  C   UNL     1      48.170  17.015  18.980  0.00  0.00    +0.002 C 
ATOM      3  C   UNL     1      48.190  16.586  17.513  0.00  0.00    +0.017 C 
ATOM      4  C   UNL     1      49.316  15.570  17.277  0.00  0.00    +0.020 C 
ATOM      5  C   UNL     1      49.083  14.350  18.164  0.00  0.00    +0.031 C 
ATOM      6  C   UNL     1      49.964  13.177  17.783  0.00  0.00    +0.151 C 
ATOM     19  C   UNL     1      49.656  12.751  16.334  0.00  0.00    +0.034 C 
ATOM     20  C   UNL     1      49.661  11.981  18.690  0.00  0.00    +0.022 C 
ATOM     21  C   UNL     1      49.863  12.380  20.145  0.00  0.00    -0.015 C 
ATOM     22  C   UNL     1      48.919  13.526  20.522  0.00  0.00    +0.170 C 
ATOM     25  C   UNL     1      49.188  14.754  19.640  0.00  0.00    -0.028 C 
ATOM     26  C   UNL     1      50.574  15.278  19.994  0.00  0.00    +0.044 C 
ATOM     27  C   UNL     1      46.945  17.895  19.218  0.00  0.00    -0.113 C 
ATOM     28  C   UNL     1      46.817  18.939  18.440  0.00  0.00    -0.016 C 
ATOM     29  C   UNL     1      45.719  19.947  18.656  0.00  0.00    +0.048 C 
ATOM     30  C   UNL     1      45.504  20.031  20.175  0.00  0.00    -0.112 C 
ATOM     34  C   UNL     1      44.994  18.673  20.641  0.00  0.00    +0.020 C 
ATOM     35  C   UNL     1      43.611  18.385  20.079  0.00  0.00    +0.016 C 
ATOM     36  C   UNL     1      42.611  19.517  20.326  0.00  0.00    -0.065 C 
ATOM     37  C   UNL     1      42.267  19.595  21.813  0.00  0.00    +0.017 C 
ATOM     38  C   UNL     1      41.325  19.208  19.543  0.00  0.00    +0.006 C 
ATOM     39  C   UNL     1      43.162  20.852  19.836  0.00  0.00    +0.002 C 
ATOM     40  C   UNL     1      44.506  21.142  20.496  0.00  0.00    +0.013 C 
ATOM     41  C   UNL     1      45.981  17.551  20.305  0.00  0.00    +0.013 C 
ATOM     42  C   UNL     1      45.136  16.355  19.852  0.00  0.00    +0.004 C 
ATOM     43  C   UNL     1      46.733  17.139  21.565  0.00  0.00    +0.010 C 
ATOM     44  C   UNL     1      47.875  16.159  21.327  0.00  0.00    +0.024 C 
ATOM     45  C   UNL     1      48.089  15.793  19.878  0.00  0.00    +0.002 C 
ENDROOT
BRANCH  30  31
ATOM     31  C   UNL     1      46.808  20.369  20.856  0.00  0.00    +0.514 C 
ATOM     32  O   UNL     1      46.974  20.084  22.029  0.00  0.00    -0.703 OA
ATOM     33  O   UNL     1      47.695  20.928  20.233  0.00  0.00    -0.687 OA
ENDBRANCH  30  31
BRANCH  22  23
ATOM     23  O   UNL     1      49.196  13.865  21.891  0.00  0.00    -0.551 OA
ATOM     24  H   UNL     1      48.569  14.493  22.275  0.00  0.00    +0.367 HD
ENDBRANCH  22  23
BRANCH   6   7
ATOM      7  O   UNL     1      51.351  13.510  17.866  0.00  0.00    -0.293 OA
BRANCH   7   8
ATOM      8  C   UNL     1      52.224  12.487  17.898  0.00  0.00    +0.599 C 
ATOM     18  O   UNL     1      52.449  11.849  16.889  0.00  0.00    -0.528 OA
BRANCH   8   9
ATOM      9  O   UNL     1      52.849  12.170  19.047  0.00  0.00    -0.267 OA
BRANCH   9  10
ATOM     10  C   UNL     1      54.052  12.752  19.301  0.00  0.00    +0.088 A 
ATOM     11  C   UNL     1      54.122  14.113  19.564  0.00  0.00    +0.038 A 
ATOM     12  C   UNL     1      55.344  14.703  19.823  0.00  0.00    +0.008 A 
ATOM     13  C   UNL     1      56.499  13.936  19.819  0.00  0.00    +0.114 A 
ATOM     16  C   UNL     1      56.429  12.577  19.555  0.00  0.00    +0.009 A 
ATOM     17  C   UNL     1      55.207  11.985  19.302  0.00  0.00    +0.047 A 
BRANCH  13  14
ATOM     14  O   UNL     1      57.702  14.518  20.073  0.00  0.00    -0.497 OA
ATOM     15  H   UNL     1      58.406  13.891  20.284  0.00  0.00    +0.394 HD
ENDBRANCH  13  14
ENDBRANCH   9  10
ENDBRANCH   8   9
ENDBRANCH   7   8
ENDBRANCH   6   7
TORSDOF 7
ENDMDL
MODEL 9
REMARK VINA RESULT:      -6.2      2.762      4.297
REMARK  Name = ZINC95486111
REMARK  13 active torsions:
REMARK  status: ('A' for Active; 'I' for Inactive)
REMARK    1  A    between atoms: C1_1  and  C2_2
REMARK    2  A    between atoms: C6_7  and  C29_36
REMARK    3  A    between atoms: C6_7  and  O4_37
REMARK    4  A    between atoms: C9_10  and  O3_35
REMARK    5  A    between atoms: C10_12  and  C28_34
REMARK    6  A    between atoms: C14_17  and  C27_33
REMARK    7  A    between atoms: C18_21  and  C26_30
REMARK    8  A    between atoms: C21_25  and  C24_28
REMARK    9  A    between atoms: C21_25  and  C25_29
REMARK   10  A    between atoms: O4_37  and  C30_38
REMARK   11  A    between atoms: C30_38  and  O6_40
REMARK   12  A    between atoms: O6_40  and  C31_41
REMARK   13  A    between atoms: C34_44  and  O7_47
REMARK                            x       y       z     vdW  Elec       q    Type
REMARK                         _______ _______ _______ _____ _____    ______ ____
ROOT
ATOM      1  C   UNL     1      48.126  14.974  18.112  0.00  0.00    +0.032 C 
ATOM      2  C   UNL     1      48.601  15.265  19.546  0.00  0.00    +0.002 C 
ATOM      3  C   UNL     1      48.708  16.776  19.750  0.00  0.00    +0.017 C 
ATOM      4  C   UNL     1      47.306  17.399  19.818  0.00  0.00    +0.020 C 
ATOM      5  C   UNL     1      46.539  16.777  20.983  0.00  0.00    +0.031 C 
ATOM      6  C   UNL     1      45.270  17.537  21.314  0.00  0.00    +0.151 C 
ATOM     19  C   UNL     1      45.625  18.980  21.721  0.00  0.00    +0.034 C 
ATOM     20  C   UNL     1      44.567  16.881  22.505  0.00  0.00    +0.022 C 
ATOM     21  C   UNL     1      44.276  15.421  22.186  0.00  0.00    -0.015 C 
ATOM     22  C   UNL     1      45.578  14.662  21.914  0.00  0.00    +0.170 C 
ATOM     25  C   UNL     1      46.320  15.282  20.722  0.00  0.00    -0.028 C 
ATOM     26  C   UNL     1      45.476  15.034  19.477  0.00  0.00    +0.044 C 
ATOM     27  C   UNL     1      49.998  14.657  19.646  0.00  0.00    -0.113 C 
ATOM     28  C   UNL     1      50.910  15.156  18.852  0.00  0.00    -0.016 C 
ATOM     29  C   UNL     1      52.291  14.560  18.771  0.00  0.00    +0.048 C 
ATOM     30  C   UNL     1      52.118  13.046  18.961  0.00  0.00    -0.112 C 
ATOM     34  C   UNL     1      51.590  12.819  20.372  0.00  0.00    +0.020 C 
ATOM     35  C   UNL     1      52.623  13.214  21.414  0.00  0.00    +0.016 C 
ATOM     36  C   UNL     1      53.994  12.576  21.177  0.00  0.00    -0.065 C 
ATOM     37  C   UNL     1      53.925  11.074  21.451  0.00  0.00    +0.017 C 
ATOM     38  C   UNL     1      54.998  13.204  22.158  0.00  0.00    +0.006 C 
ATOM     39  C   UNL     1      54.483  12.837  19.757  0.00  0.00    +0.002 C 
ATOM     40  C   UNL     1      53.455  12.340  18.746  0.00  0.00    +0.013 C 
ATOM     41  C   UNL     1      50.258  13.539  20.602  0.00  0.00    +0.013 C 
ATOM     42  C   UNL     1      50.316  14.112  22.023  0.00  0.00    +0.004 C 
ATOM     43  C   UNL     1      49.117  12.529  20.553  0.00  0.00    +0.010 C 
ATOM     44  C   UNL     1      47.725  13.148  20.584  0.00  0.00    +0.024 C 
ATOM     45  C   UNL     1      47.715  14.658  20.618  0.00  0.00    +0.002 C 
ENDROOT
BRANCH  30  31
ATOM     31  C   UNL     1      51.144  12.511  17.939  0.00  0.00    +0.514 C 
ATOM     32  O   UNL     1      51.060  13.037  16.843  0.00  0.00    -0.703 OA
ATOM     33  O   UNL     1      50.439  11.553  18.211  0.00  0.00    -0.687 OA
ENDBRANCH  30  31
BRANCH  22  23
ATOM     23  O   UNL     1      45.216  13.311  21.588  0.00  0.00    -0.551 OA
ATOM     24  H   UNL     1      45.065  13.161  20.645  0.00  0.00    +0.367 HD
ENDBRANCH  22  23
BRANCH   6   7
ATOM      7  O   UNL     1      44.382  17.592  20.196  0.00  0.00    -0.293 OA
BRANCH   7   8
ATOM      8  C   UNL     1      43.494  18.603  20.171  0.00  0.00    +0.599 C 
ATOM     18  O   UNL     1      42.783  18.810  21.134  0.00  0.00    -0.528 OA
BRANCH   8   9
ATOM      9  O   UNL     1      43.393  19.383  19.080  0.00  0.00    -0.267 OA
BRANCH   9  10
ATOM     10  C   UNL     1      43.717  20.698  19.203  0.00  0.00    +0.088 A 
ATOM     11  C   UNL     1      45.048  21.090  19.170  0.00  0.00    +0.038 A 
ATOM     12  C   UNL     1      45.376  22.426  19.294  0.00  0.00    +0.008 A 
ATOM     13  C   UNL     1      44.378  23.374  19.452  0.00  0.00    +0.114 A 
ATOM     16  C   UNL     1      43.048  22.983  19.486  0.00  0.00    +0.009 A 
ATOM     17  C   UNL     1      42.718  21.648  19.356  0.00  0.00    +0.047 A 
BRANCH  13  14
ATOM     14  O   UNL     1      44.702  24.690  19.575  0.00  0.00    -0.497 OA
ATOM     15  H   UNL     1      44.272  25.134  20.317  0.00  0.00    +0.394 HD
ENDBRANCH  13  14
ENDBRANCH   9  10
ENDBRANCH   8   9
ENDBRANCH   7   8
ENDBRANCH   6   7
TORSDOF 7
ENDMDL
