MODEL 1
REMARK VINA RESULT:      -4.9      0.000      0.000
REMARK  Name = ZINC14680087
REMARK  6 active torsions:
REMARK  status: ('A' for Active; 'I' for Inactive)
REMARK    1  A    between atoms: C1_1  and  O1_2
REMARK    2  A    between atoms: O1_2  and  C2_3
REMARK    3  A    between atoms: C4_5  and  C8_11
REMARK    4  A    between atoms: C6_7  and  O3_10
REMARK    5  A    between atoms: C7_8  and  O2_9
REMARK    6  A    between atoms: C8_11  and  C9_12
REMARK                            x       y       z     vdW  Elec       q    Type
REMARK                         _______ _______ _______ _____ _____    ______ ____
ROOT
ATOM      3  C   UNL     1      42.808  21.761  19.434  0.00  0.00    +0.122 A 
ATOM      4  C   UNL     1      42.742  20.557  20.118  0.00  0.00    -0.064 A 
ATOM      5  C   UNL     1      41.584  19.805  20.087  0.00  0.00    -0.029 A 
ATOM      9  C   UNL     1      40.481  20.255  19.385  0.00  0.00    -0.029 A 
ATOM     10  C   UNL     1      40.536  21.461  18.703  0.00  0.00    +0.124 A 
ATOM     13  C   UNL     1      41.702  22.218  18.727  0.00  0.00    +0.042 A 
ENDROOT
BRANCH   3   2
ATOM      1  C   UNL     1      45.182  21.792  19.292  0.00  0.00    +0.243 C 
ATOM      2  O   UNL     1      43.951  22.498  19.460  0.00  0.00    -0.305 OA
ENDBRANCH   3   2
BRANCH  10  11
ATOM     11  O   UNL     1      39.452  21.903  18.012  0.00  0.00    -0.483 OA
ATOM     12  H   UNL     1      38.667  22.044  18.561  0.00  0.00    +0.391 HD
ENDBRANCH  10  11
BRANCH  13  14
ATOM     14  O   UNL     1      41.761  23.402  18.057  0.00  0.00    -0.475 OA
ATOM     15  H   UNL     1      41.368  23.373  17.174  0.00  0.00    +0.383 HD
ENDBRANCH  13  14
BRANCH   5   6
ATOM      6  C   UNL     1      41.519  18.494  20.828  0.00  0.00    +0.112 C 
BRANCH   6   7
ATOM      7  C   UNL     1      42.700  18.383  21.757  0.00  0.00    -0.040 C 
ATOM      8  C   UNL     1      43.069  17.211  22.211  0.00  0.00    +0.009 C 
ENDBRANCH   6   7
ENDBRANCH   5   6
TORSDOF 5
ENDMDL
MODEL 2
REMARK VINA RESULT:      -4.7      2.474      4.447
REMARK  Name = ZINC14680087
REMARK  6 active torsions:
REMARK  status: ('A' for Active; 'I' for Inactive)
REMARK    1  A    between atoms: C1_1  and  O1_2
REMARK    2  A    between atoms: O1_2  and  C2_3
REMARK    3  A    between atoms: C4_5  and  C8_11
REMARK    4  A    between atoms: C6_7  and  O3_10
REMARK    5  A    between atoms: C7_8  and  O2_9
REMARK    6  A    between atoms: C8_11  and  C9_12
REMARK                            x       y       z     vdW  Elec       q    Type
REMARK                         _______ _______ _______ _____ _____    ______ ____
ROOT
ATOM      3  C   UNL     1      41.372  20.059  19.846  0.00  0.00    +0.122 A 
ATOM      4  C   UNL     1      42.498  20.125  19.038  0.00  0.00    -0.064 A 
ATOM      5  C   UNL     1      43.623  19.390  19.357  0.00  0.00    -0.029 A 
ATOM      9  C   UNL     1      43.638  18.596  20.489  0.00  0.00    -0.029 A 
ATOM     10  C   UNL     1      42.519  18.530  21.306  0.00  0.00    +0.124 A 
ATOM     13  C   UNL     1      41.382  19.263  20.985  0.00  0.00    +0.042 A 
ENDROOT
BRANCH   3   2
ATOM      1  C   UNL     1      40.371  21.688  18.431  0.00  0.00    +0.243 C 
ATOM      2  O   UNL     1      40.263  20.779  19.528  0.00  0.00    -0.305 OA
ENDBRANCH   3   2
BRANCH  10  11
ATOM     11  O   UNL     1      42.533  17.749  22.419  0.00  0.00    -0.483 OA
ATOM     12  H   UNL     1      42.828  16.841  22.258  0.00  0.00    +0.391 HD
ENDBRANCH  10  11
BRANCH  13  14
ATOM     14  O   UNL     1      40.281  19.200  21.784  0.00  0.00    -0.475 OA
ATOM     15  H   UNL     1      39.863  20.057  21.944  0.00  0.00    +0.383 HD
ENDBRANCH  13  14
BRANCH   5   6
ATOM      6  C   UNL     1      44.842  19.460  18.473  0.00  0.00    +0.112 C 
BRANCH   6   7
ATOM      7  C   UNL     1      45.581  20.746  18.739  0.00  0.00    -0.040 C 
ATOM      8  C   UNL     1      46.877  20.728  18.931  0.00  0.00    +0.009 C 
ENDBRANCH   6   7
ENDBRANCH   5   6
TORSDOF 5
ENDMDL
MODEL 3
REMARK VINA RESULT:      -4.6     20.767     22.398
REMARK  Name = ZINC14680087
REMARK  6 active torsions:
REMARK  status: ('A' for Active; 'I' for Inactive)
REMARK    1  A    between atoms: C1_1  and  O1_2
REMARK    2  A    between atoms: O1_2  and  C2_3
REMARK    3  A    between atoms: C4_5  and  C8_11
REMARK    4  A    between atoms: C6_7  and  O3_10
REMARK    5  A    between atoms: C7_8  and  O2_9
REMARK    6  A    between atoms: C8_11  and  C9_12
REMARK                            x       y       z     vdW  Elec       q    Type
REMARK                         _______ _______ _______ _____ _____    ______ ____
ROOT
ATOM      3  C   UNL     1      52.414  32.806   3.925  0.00  0.00    +0.122 A 
ATOM      4  C   UNL     1      53.669  33.006   4.481  0.00  0.00    -0.064 A 
ATOM      5  C   UNL     1      53.788  33.380   5.805  0.00  0.00    -0.029 A 
ATOM      9  C   UNL     1      52.658  33.568   6.579  0.00  0.00    -0.029 A 
ATOM     10  C   UNL     1      51.400  33.376   6.030  0.00  0.00    +0.124 A 
ATOM     13  C   UNL     1      51.275  32.994   4.699  0.00  0.00    +0.042 A 
ENDROOT
BRANCH   3   2
ATOM      1  C   UNL     1      53.440  31.823   2.017  0.00  0.00    +0.243 C 
ATOM      2  O   UNL     1      52.298  32.433   2.622  0.00  0.00    -0.305 OA
ENDBRANCH   3   2
BRANCH  10  11
ATOM     11  O   UNL     1      50.289  33.561   6.791  0.00  0.00    -0.483 OA
ATOM     12  H   UNL     1      50.112  32.839   7.411  0.00  0.00    +0.391 HD
ENDBRANCH  10  11
BRANCH  13  14
ATOM     14  O   UNL     1      50.042  32.803   4.156  0.00  0.00    -0.475 OA
ATOM     15  H   UNL     1      49.932  33.202   3.281  0.00  0.00    +0.383 HD
ENDBRANCH  13  14
BRANCH   5   6
ATOM      6  C   UNL     1      55.154  33.590   6.407  0.00  0.00    +0.112 C 
BRANCH   6   7
ATOM      7  C   UNL     1      56.210  33.253   5.385  0.00  0.00    -0.040 C 
ATOM      8  C   UNL     1      57.445  33.650   5.564  0.00  0.00    +0.009 C 
ENDBRANCH   6   7
ENDBRANCH   5   6
TORSDOF 5
ENDMDL
MODEL 4
REMARK VINA RESULT:      -4.5      7.076      9.552
REMARK  Name = ZINC14680087
REMARK  6 active torsions:
REMARK  status: ('A' for Active; 'I' for Inactive)
REMARK    1  A    between atoms: C1_1  and  O1_2
REMARK    2  A    between atoms: O1_2  and  C2_3
REMARK    3  A    between atoms: C4_5  and  C8_11
REMARK    4  A    between atoms: C6_7  and  O3_10
REMARK    5  A    between atoms: C7_8  and  O2_9
REMARK    6  A    between atoms: C8_11  and  C9_12
REMARK                            x       y       z     vdW  Elec       q    Type
REMARK                         _______ _______ _______ _____ _____    ______ ____
ROOT
ATOM      3  C   UNL     1      50.912  18.364  17.256  0.00  0.00    +0.122 A 
ATOM      4  C   UNL     1      50.125  18.891  18.268  0.00  0.00    -0.064 A 
ATOM      5  C   UNL     1      50.090  20.257  18.478  0.00  0.00    -0.029 A 
ATOM      9  C   UNL     1      50.849  21.101  17.689  0.00  0.00    -0.029 A 
ATOM     10  C   UNL     1      51.643  20.581  16.679  0.00  0.00    +0.124 A 
ATOM     13  C   UNL     1      51.677  19.209  16.460  0.00  0.00    +0.042 A 
ENDROOT
BRANCH   3   2
ATOM      1  C   UNL     1      51.771  16.246  17.915  0.00  0.00    +0.243 C 
ATOM      2  O   UNL     1      50.942  17.020  17.046  0.00  0.00    -0.305 OA
ENDBRANCH   3   2
BRANCH  10  11
ATOM     11  O   UNL     1      52.389  21.413  15.903  0.00  0.00    -0.483 OA
ATOM     12  H   UNL     1      52.166  22.349  16.003  0.00  0.00    +0.391 HD
ENDBRANCH  10  11
BRANCH  13  14
ATOM     14  O   UNL     1      52.454  18.695  15.468  0.00  0.00    -0.475 OA
ATOM     15  H   UNL     1      53.341  18.439  15.757  0.00  0.00    +0.383 HD
ENDBRANCH  13  14
BRANCH   5   6
ATOM      6  C   UNL     1      49.229  20.826  19.576  0.00  0.00    +0.112 C 
BRANCH   6   7
ATOM      7  C   UNL     1      47.867  20.183  19.530  0.00  0.00    -0.040 C 
ATOM      8  C   UNL     1      46.872  20.799  18.942  0.00  0.00    +0.009 C 
ENDBRANCH   6   7
ENDBRANCH   5   6
TORSDOF 5
ENDMDL
MODEL 5
REMARK VINA RESULT:      -4.5      1.176      3.107
REMARK  Name = ZINC14680087
REMARK  6 active torsions:
REMARK  status: ('A' for Active; 'I' for Inactive)
REMARK    1  A    between atoms: C1_1  and  O1_2
REMARK    2  A    between atoms: O1_2  and  C2_3
REMARK    3  A    between atoms: C4_5  and  C8_11
REMARK    4  A    between atoms: C6_7  and  O3_10
REMARK    5  A    between atoms: C7_8  and  O2_9
REMARK    6  A    between atoms: C8_11  and  C9_12
REMARK                            x       y       z     vdW  Elec       q    Type
REMARK                         _______ _______ _______ _____ _____    ______ ____
ROOT
ATOM      3  C   UNL     1      42.023  21.745  19.007  0.00  0.00    +0.122 A 
ATOM      4  C   UNL     1      42.189  20.406  19.328  0.00  0.00    -0.064 A 
ATOM      5  C   UNL     1      43.329  19.988  19.988  0.00  0.00    -0.029 A 
ATOM      9  C   UNL     1      44.314  20.900  20.320  0.00  0.00    -0.029 A 
ATOM     10  C   UNL     1      44.158  22.239  19.998  0.00  0.00    +0.124 A 
ATOM     13  C   UNL     1      43.011  22.665  19.339  0.00  0.00    +0.042 A 
ENDROOT
BRANCH   3   2
ATOM      1  C   UNL     1      39.716  21.379  18.560  0.00  0.00    +0.243 C 
ATOM      2  O   UNL     1      40.899  22.156  18.363  0.00  0.00    -0.305 OA
ENDBRANCH   3   2
BRANCH  10  11
ATOM     11  O   UNL     1      45.127  23.135  20.325  0.00  0.00    -0.483 OA
ATOM     12  H   UNL     1      45.588  22.932  21.151  0.00  0.00    +0.391 HD
ENDBRANCH  10  11
BRANCH  13  14
ATOM     14  O   UNL     1      42.854  23.980  19.022  0.00  0.00    -0.475 OA
ATOM     15  H   UNL     1      43.513  24.314  18.398  0.00  0.00    +0.383 HD
ENDBRANCH  13  14
BRANCH   5   6
ATOM      6  C   UNL     1      43.503  18.533  20.340  0.00  0.00    +0.112 C 
BRANCH   6   7
ATOM      7  C   UNL     1      42.835  18.253  21.661  0.00  0.00    -0.040 C 
ATOM      8  C   UNL     1      43.084  17.135  22.297  0.00  0.00    +0.009 C 
ENDBRANCH   6   7
ENDBRANCH   5   6
TORSDOF 5
ENDMDL
MODEL 6
REMARK VINA RESULT:      -4.4      2.486      4.259
REMARK  Name = ZINC14680087
REMARK  6 active torsions:
REMARK  status: ('A' for Active; 'I' for Inactive)
REMARK    1  A    between atoms: C1_1  and  O1_2
REMARK    2  A    between atoms: O1_2  and  C2_3
REMARK    3  A    between atoms: C4_5  and  C8_11
REMARK    4  A    between atoms: C6_7  and  O3_10
REMARK    5  A    between atoms: C7_8  and  O2_9
REMARK    6  A    between atoms: C8_11  and  C9_12
REMARK                            x       y       z     vdW  Elec       q    Type
REMARK                         _______ _______ _______ _____ _____    ______ ____
ROOT
ATOM      3  C   UNL     1      42.798  18.678  21.351  0.00  0.00    +0.122 A 
ATOM      4  C   UNL     1      43.883  18.748  20.489  0.00  0.00    -0.064 A 
ATOM      5  C   UNL     1      43.796  19.488  19.326  0.00  0.00    -0.029 A 
ATOM      9  C   UNL     1      42.625  20.151  19.009  0.00  0.00    -0.029 A 
ATOM     10  C   UNL     1      41.534  20.081  19.861  0.00  0.00    +0.124 A 
ATOM     13  C   UNL     1      41.619  19.342  21.036  0.00  0.00    +0.042 A 
ENDROOT
BRANCH   3   2
ATOM      1  C   UNL     1      43.366  16.612  22.384  0.00  0.00    +0.243 C 
ATOM      2  O   UNL     1      42.886  17.953  22.498  0.00  0.00    -0.305 OA
ENDBRANCH   3   2
BRANCH  10  11
ATOM     11  O   UNL     1      40.382  20.733  19.549  0.00  0.00    -0.483 OA
ATOM     12  H   UNL     1      40.519  21.611  19.167  0.00  0.00    +0.391 HD
ENDBRANCH  10  11
BRANCH  13  14
ATOM     14  O   UNL     1      40.550  19.272  21.876  0.00  0.00    -0.475 OA
ATOM     15  H   UNL     1      40.469  18.426  22.339  0.00  0.00    +0.383 HD
ENDBRANCH  13  14
BRANCH   5   6
ATOM      6  C   UNL     1      44.979  19.567  18.396  0.00  0.00    +0.112 C 
BRANCH   6   7
ATOM      7  C   UNL     1      45.817  20.769  18.750  0.00  0.00    -0.040 C 
ATOM      8  C   UNL     1      47.086  20.620  19.040  0.00  0.00    +0.009 C 
ENDBRANCH   6   7
ENDBRANCH   5   6
TORSDOF 5
ENDMDL
MODEL 7
REMARK VINA RESULT:      -4.4     20.852     22.330
REMARK  Name = ZINC14680087
REMARK  6 active torsions:
REMARK  status: ('A' for Active; 'I' for Inactive)
REMARK    1  A    between atoms: C1_1  and  O1_2
REMARK    2  A    between atoms: O1_2  and  C2_3
REMARK    3  A    between atoms: C4_5  and  C8_11
REMARK    4  A    between atoms: C6_7  and  O3_10
REMARK    5  A    between atoms: C7_8  and  O2_9
REMARK    6  A    between atoms: C8_11  and  C9_12
REMARK                            x       y       z     vdW  Elec       q    Type
REMARK                         _______ _______ _______ _____ _____    ______ ____
ROOT
ATOM      3  C   UNL     1      51.814  32.917   5.178  0.00  0.00    +0.122 A 
ATOM      4  C   UNL     1      53.080  32.744   4.638  0.00  0.00    -0.064 A 
ATOM      5  C   UNL     1      54.183  33.281   5.274  0.00  0.00    -0.029 A 
ATOM      9  C   UNL     1      54.029  34.004   6.443  0.00  0.00    -0.029 A 
ATOM     10  C   UNL     1      52.766  34.186   6.985  0.00  0.00    +0.124 A 
ATOM     13  C   UNL     1      51.654  33.642   6.352  0.00  0.00    +0.042 A 
ENDROOT
BRANCH   3   2
ATOM      1  C   UNL     1      50.427  32.871   3.246  0.00  0.00    +0.243 C 
ATOM      2  O   UNL     1      50.729  32.383   4.555  0.00  0.00    -0.305 OA
ENDBRANCH   3   2
BRANCH  10  11
ATOM     11  O   UNL     1      52.615  34.896   8.135  0.00  0.00    -0.483 OA
ATOM     12  H   UNL     1      52.230  34.389   8.863  0.00  0.00    +0.391 HD
ENDBRANCH  10  11
BRANCH  13  14
ATOM     14  O   UNL     1      50.413  33.819   6.883  0.00  0.00    -0.475 OA
ATOM     15  H   UNL     1      50.188  34.743   7.058  0.00  0.00    +0.383 HD
ENDBRANCH  13  14
BRANCH   5   6
ATOM      6  C   UNL     1      55.557  33.086   4.687  0.00  0.00    +0.112 C 
BRANCH   6   7
ATOM      7  C   UNL     1      56.569  33.832   5.519  0.00  0.00    -0.040 C 
ATOM      8  C   UNL     1      57.823  33.454   5.518  0.00  0.00    +0.009 C 
ENDBRANCH   6   7
ENDBRANCH   5   6
TORSDOF 5
ENDMDL
MODEL 8
REMARK VINA RESULT:      -4.3      8.452      9.819
REMARK  Name = ZINC14680087
REMARK  6 active torsions:
REMARK  status: ('A' for Active; 'I' for Inactive)
REMARK    1  A    between atoms: C1_1  and  O1_2
REMARK    2  A    between atoms: O1_2  and  C2_3
REMARK    3  A    between atoms: C4_5  and  C8_11
REMARK    4  A    between atoms: C6_7  and  O3_10
REMARK    5  A    between atoms: C7_8  and  O2_9
REMARK    6  A    between atoms: C8_11  and  C9_12
REMARK                            x       y       z     vdW  Elec       q    Type
REMARK                         _______ _______ _______ _____ _____    ______ ____
ROOT
ATOM      3  C   UNL     1      50.954  18.392  17.273  0.00  0.00    +0.122 A 
ATOM      4  C   UNL     1      50.189  18.926  18.299  0.00  0.00    -0.064 A 
ATOM      5  C   UNL     1      50.157  20.293  18.501  0.00  0.00    -0.029 A 
ATOM      9  C   UNL     1      50.897  21.133  17.689  0.00  0.00    -0.029 A 
ATOM     10  C   UNL     1      51.670  20.607  16.665  0.00  0.00    +0.124 A 
ATOM     13  C   UNL     1      51.700  19.233  16.456  0.00  0.00    +0.042 A 
ENDROOT
BRANCH   3   2
ATOM      1  C   UNL     1      51.811  16.277  17.944  0.00  0.00    +0.243 C 
ATOM      2  O   UNL     1      50.981  17.048  17.072  0.00  0.00    -0.305 OA
ENDBRANCH   3   2
BRANCH  10  11
ATOM     11  O   UNL     1      52.397  21.433  15.868  0.00  0.00    -0.483 OA
ATOM     12  H   UNL     1      52.259  21.289  14.921  0.00  0.00    +0.391 HD
ENDBRANCH  10  11
BRANCH  13  14
ATOM     14  O   UNL     1      52.457  18.713  15.450  0.00  0.00    -0.475 OA
ATOM     15  H   UNL     1      51.945  18.431  14.679  0.00  0.00    +0.383 HD
ENDBRANCH  13  14
BRANCH   5   6
ATOM      6  C   UNL     1      49.319  20.869  19.613  0.00  0.00    +0.112 C 
BRANCH   6   7
ATOM      7  C   UNL     1      49.885  20.438  20.942  0.00  0.00    -0.040 C 
ATOM      8  C   UNL     1      50.936  21.047  21.434  0.00  0.00    +0.009 C 
ENDBRANCH   6   7
ENDBRANCH   5   6
TORSDOF 5
ENDMDL
MODEL 9
REMARK VINA RESULT:      -4.2     20.733     22.443
REMARK  Name = ZINC14680087
REMARK  6 active torsions:
REMARK  status: ('A' for Active; 'I' for Inactive)
REMARK    1  A    between atoms: C1_1  and  O1_2
REMARK    2  A    between atoms: O1_2  and  C2_3
REMARK    3  A    between atoms: C4_5  and  C8_11
REMARK    4  A    between atoms: C6_7  and  O3_10
REMARK    5  A    between atoms: C7_8  and  O2_9
REMARK    6  A    between atoms: C8_11  and  C9_12
REMARK                            x       y       z     vdW  Elec       q    Type
REMARK                         _______ _______ _______ _____ _____    ______ ____
ROOT
ATOM      3  C   UNL     1      53.626  34.293   5.884  0.00  0.00    +0.122 A 
ATOM      4  C   UNL     1      53.595  33.710   4.626  0.00  0.00    -0.064 A 
ATOM      5  C   UNL     1      52.441  33.099   4.174  0.00  0.00    -0.029 A 
ATOM      9  C   UNL     1      51.317  33.055   4.977  0.00  0.00    -0.029 A 
ATOM     10  C   UNL     1      51.342  33.631   6.239  0.00  0.00    +0.124 A 
ATOM     13  C   UNL     1      52.499  34.251   6.695  0.00  0.00    +0.042 A 
ENDROOT
BRANCH   3   2
ATOM      1  C   UNL     1      56.003  34.387   5.837  0.00  0.00    +0.243 C 
ATOM      2  O   UNL     1      54.761  34.898   6.326  0.00  0.00    -0.305 OA
ENDBRANCH   3   2
BRANCH  10  11
ATOM     11  O   UNL     1      50.236  33.588   7.029  0.00  0.00    -0.483 OA
ATOM     12  H   UNL     1      50.374  33.139   7.875  0.00  0.00    +0.391 HD
ENDBRANCH  10  11
BRANCH  13  14
ATOM     14  O   UNL     1      52.526  34.818   7.933  0.00  0.00    -0.475 OA
ATOM     15  H   UNL     1      52.837  35.734   7.938  0.00  0.00    +0.383 HD
ENDBRANCH  13  14
BRANCH   5   6
ATOM      6  C   UNL     1      52.410  32.472   2.804  0.00  0.00    +0.112 C 
BRANCH   6   7
ATOM      7  C   UNL     1      53.677  31.686   2.583  0.00  0.00    -0.040 C 
ATOM      8  C   UNL     1      54.329  31.800   1.452  0.00  0.00    +0.009 C 
ENDBRANCH   6   7
ENDBRANCH   5   6
TORSDOF 5
ENDMDL
