MODEL 1
REMARK VINA RESULT:      -4.9      0.000      0.000
REMARK  Name = ZINC13429389
REMARK  10 active torsions:
REMARK  status: ('A' for Active; 'I' for Inactive)
REMARK    1  A    between atoms: C1_1  and  N1_2
REMARK    2  A    between atoms: C11_13  and  O5_21
REMARK    3  A    between atoms: C11_13  and  O6_23
REMARK    4  A    between atoms: C12_14  and  C13_15
REMARK    5  A    between atoms: C12_14  and  O4_19
REMARK    6  A    between atoms: C13_15  and  O3_17
REMARK    7  A    between atoms: O3_17  and  C14_18
REMARK    8  A    between atoms: O4_19  and  C15_20
REMARK    9  A    between atoms: O5_21  and  C16_22
REMARK   10  A    between atoms: O6_23  and  C17_24
REMARK                            x       y       z     vdW  Elec       q    Type
REMARK                         _______ _______ _______ _____ _____    ______ ____
ROOT
ATOM      1  C   UNL     1      49.857  16.461  17.349  0.00  0.00    +0.318 C 
ATOM      2  N   UNL     1      49.337  17.696  17.943  0.00  0.00    -0.472 N 
ATOM      3  C   UNL     1      50.183  18.768  18.095  0.00  0.00    +0.199 A 
ATOM      4  C   UNL     1      51.515  18.699  17.695  0.00  0.00    -0.031 A 
ATOM      5  C   UNL     1      52.336  19.792  17.862  0.00  0.00    +0.087 A 
ATOM      6  C   UNL     1      51.850  20.966  18.424  0.00  0.00    -0.017 A 
ATOM      7  C   UNL     1      50.545  21.054  18.823  0.00  0.00    +0.120 A 
ATOM      8  C   UNL     1      49.698  19.959  18.664  0.00  0.00    -0.186 A 
ATOM      9  C   UNL     1      48.286  20.009  19.079  0.00  0.00    +0.446 A 
ATOM     10  C   UNL     1      47.493  18.847  18.881  0.00  0.00    -0.264 A 
ATOM     11  C   UNL     1      46.132  18.223  19.039  0.00  0.00    +0.200 C 
ATOM     18  C   UNL     1      46.736  16.972  18.420  0.00  0.00    +0.320 C 
ATOM     23  O   UNL     1      47.813  21.017  19.577  0.00  0.00    -0.472 OA
ATOM     24  C   UNL     1      48.029  17.745  18.330  0.00  0.00    +0.172 A 
ENDROOT
BRANCH  11  12
ATOM     12  O   UNL     1      45.121  18.837  18.236  0.00  0.00    -0.325 OA
ATOM     13  C   UNL     1      44.651  20.085  18.748  0.00  0.00    +0.226 C 
ENDBRANCH  11  12
BRANCH  11  14
ATOM     14  C   UNL     1      45.711  18.041  20.475  0.00  0.00    +0.457 C 
ATOM     17  O   UNL     1      46.471  18.332  21.367  0.00  0.00    -0.462 OA
BRANCH  14  15
ATOM     15  O   UNL     1      44.493  17.556  20.760  0.00  0.00    -0.343 OA
ATOM     16  C   UNL     1      44.362  16.777  21.979  0.00  0.00    +0.269 C 
ENDBRANCH  14  15
ENDBRANCH  11  14
BRANCH  18  19
ATOM     19  O   UNL     1      46.793  15.861  19.317  0.00  0.00    -0.351 OA
ATOM     20  C   UNL     1      45.776  14.882  19.095  0.00  0.00    +0.232 C 
ENDBRANCH  18  19
BRANCH  18  21
ATOM     21  O   UNL     1      46.180  16.633  17.147  0.00  0.00    -0.351 OA
ATOM     22  C   UNL     1      46.764  15.474  16.548  0.00  0.00    +0.229 C 
ENDBRANCH  18  21
TORSDOF 5
ENDMDL
MODEL 2
REMARK VINA RESULT:      -4.9      1.763      3.999
REMARK  Name = ZINC13429389
REMARK  10 active torsions:
REMARK  status: ('A' for Active; 'I' for Inactive)
REMARK    1  A    between atoms: C1_1  and  N1_2
REMARK    2  A    between atoms: C11_13  and  O5_21
REMARK    3  A    between atoms: C11_13  and  O6_23
REMARK    4  A    between atoms: C12_14  and  C13_15
REMARK    5  A    between atoms: C12_14  and  O4_19
REMARK    6  A    between atoms: C13_15  and  O3_17
REMARK    7  A    between atoms: O3_17  and  C14_18
REMARK    8  A    between atoms: O4_19  and  C15_20
REMARK    9  A    between atoms: O5_21  and  C16_22
REMARK   10  A    between atoms: O6_23  and  C17_24
REMARK                            x       y       z     vdW  Elec       q    Type
REMARK                         _______ _______ _______ _____ _____    ______ ____
ROOT
ATOM      1  C   UNL     1      49.193  20.777  19.759  0.00  0.00    +0.318 C 
ATOM      2  N   UNL     1      49.451  19.561  18.984  0.00  0.00    -0.472 N 
ATOM      3  C   UNL     1      50.367  19.606  17.961  0.00  0.00    +0.199 A 
ATOM      4  C   UNL     1      51.048  20.780  17.654  0.00  0.00    -0.031 A 
ATOM      5  C   UNL     1      51.960  20.791  16.621  0.00  0.00    +0.087 A 
ATOM      6  C   UNL     1      52.209  19.642  15.883  0.00  0.00    -0.017 A 
ATOM      7  C   UNL     1      51.551  18.478  16.168  0.00  0.00    +0.120 A 
ATOM      8  C   UNL     1      50.623  18.447  17.209  0.00  0.00    -0.186 A 
ATOM      9  C   UNL     1      49.891  17.216  17.552  0.00  0.00    +0.446 A 
ATOM     10  C   UNL     1      48.963  17.272  18.626  0.00  0.00    -0.264 A 
ATOM     11  C   UNL     1      47.964  16.508  19.454  0.00  0.00    +0.200 C 
ATOM     18  C   UNL     1      47.741  17.806  20.215  0.00  0.00    +0.320 C 
ATOM     23  O   UNL     1      50.075  16.182  16.933  0.00  0.00    -0.472 OA
ATOM     24  C   UNL     1      48.772  18.419  19.299  0.00  0.00    +0.172 A 
ENDROOT
BRANCH  11  12
ATOM     12  O   UNL     1      48.547  15.466  20.241  0.00  0.00    -0.325 OA
ATOM     13  C   UNL     1      48.871  14.289  19.500  0.00  0.00    +0.226 C 
ENDBRANCH  11  12
BRANCH  11  14
ATOM     14  C   UNL     1      46.756  16.051  18.678  0.00  0.00    +0.457 C 
ATOM     17  O   UNL     1      45.821  15.551  19.256  0.00  0.00    -0.462 OA
BRANCH  14  15
ATOM     15  O   UNL     1      46.720  16.200  17.345  0.00  0.00    -0.343 OA
ATOM     16  C   UNL     1      46.751  14.988  16.545  0.00  0.00    +0.269 C 
ENDBRANCH  14  15
ENDBRANCH  11  14
BRANCH  18  19
ATOM     19  O   UNL     1      46.430  18.348  20.049  0.00  0.00    -0.351 OA
ATOM     20  C   UNL     1      46.211  19.568  20.761  0.00  0.00    +0.232 C 
ENDBRANCH  18  19
BRANCH  18  21
ATOM     21  O   UNL     1      48.152  17.748  21.584  0.00  0.00    -0.351 OA
ATOM     22  C   UNL     1      47.147  17.252  22.471  0.00  0.00    +0.229 C 
ENDBRANCH  18  21
TORSDOF 5
ENDMDL
MODEL 3
REMARK VINA RESULT:      -4.8      2.632      5.435
REMARK  Name = ZINC13429389
REMARK  10 active torsions:
REMARK  status: ('A' for Active; 'I' for Inactive)
REMARK    1  A    between atoms: C1_1  and  N1_2
REMARK    2  A    between atoms: C11_13  and  O5_21
REMARK    3  A    between atoms: C11_13  and  O6_23
REMARK    4  A    between atoms: C12_14  and  C13_15
REMARK    5  A    between atoms: C12_14  and  O4_19
REMARK    6  A    between atoms: C13_15  and  O3_17
REMARK    7  A    between atoms: O3_17  and  C14_18
REMARK    8  A    between atoms: O4_19  and  C15_20
REMARK    9  A    between atoms: O5_21  and  C16_22
REMARK   10  A    between atoms: O6_23  and  C17_24
REMARK                            x       y       z     vdW  Elec       q    Type
REMARK                         _______ _______ _______ _____ _____    ______ ____
ROOT
ATOM      1  C   UNL     1      47.011  17.050  17.323  0.00  0.00    +0.318 C 
ATOM      2  N   UNL     1      47.495  18.190  18.106  0.00  0.00    -0.472 N 
ATOM      3  C   UNL     1      46.594  19.136  18.531  0.00  0.00    +0.199 A 
ATOM      4  C   UNL     1      45.239  19.028  18.232  0.00  0.00    -0.031 A 
ATOM      5  C   UNL     1      44.363  19.994  18.673  0.00  0.00    +0.087 A 
ATOM      6  C   UNL     1      44.816  21.077  19.415  0.00  0.00    -0.017 A 
ATOM      7  C   UNL     1      46.143  21.203  19.719  0.00  0.00    +0.120 A 
ATOM      8  C   UNL     1      47.046  20.236  19.281  0.00  0.00    -0.186 A 
ATOM      9  C   UNL     1      48.484  20.330  19.585  0.00  0.00    +0.446 A 
ATOM     10  C   UNL     1      49.335  19.302  19.099  0.00  0.00    -0.264 A 
ATOM     11  C   UNL     1      50.746  18.782  19.020  0.00  0.00    +0.200 C 
ATOM     18  C   UNL     1      50.177  17.627  18.210  0.00  0.00    +0.320 C 
ATOM     23  O   UNL     1      48.930  21.262  20.233  0.00  0.00    -0.472 OA
ATOM     24  C   UNL     1      48.828  18.280  18.387  0.00  0.00    +0.172 A 
ENDROOT
BRANCH  11  12
ATOM     12  O   UNL     1      51.286  18.392  20.285  0.00  0.00    -0.325 OA
ATOM     13  C   UNL     1      51.649  19.489  21.125  0.00  0.00    +0.226 C 
ENDBRANCH  11  12
BRANCH  11  14
ATOM     14  C   UNL     1      51.676  19.669  18.233  0.00  0.00    +0.457 C 
ATOM     17  O   UNL     1      52.851  19.400  18.163  0.00  0.00    -0.462 OA
BRANCH  14  15
ATOM     15  O   UNL     1      51.196  20.756  17.609  0.00  0.00    -0.343 OA
ATOM     16  C   UNL     1      51.674  21.006  16.260  0.00  0.00    +0.269 C 
ENDBRANCH  14  15
ENDBRANCH  11  14
BRANCH  18  19
ATOM     19  O   UNL     1      50.629  17.602  16.855  0.00  0.00    -0.351 OA
ATOM     20  C   UNL     1      51.668  16.654  16.606  0.00  0.00    +0.232 C 
ENDBRANCH  18  19
BRANCH  18  21
ATOM     21  O   UNL     1      50.290  16.358  18.859  0.00  0.00    -0.351 OA
ATOM     22  C   UNL     1      49.669  15.285  18.147  0.00  0.00    +0.229 C 
ENDBRANCH  18  21
TORSDOF 5
ENDMDL
MODEL 4
REMARK VINA RESULT:      -4.5      1.545      2.028
REMARK  Name = ZINC13429389
REMARK  10 active torsions:
REMARK  status: ('A' for Active; 'I' for Inactive)
REMARK    1  A    between atoms: C1_1  and  N1_2
REMARK    2  A    between atoms: C11_13  and  O5_21
REMARK    3  A    between atoms: C11_13  and  O6_23
REMARK    4  A    between atoms: C12_14  and  C13_15
REMARK    5  A    between atoms: C12_14  and  O4_19
REMARK    6  A    between atoms: C13_15  and  O3_17
REMARK    7  A    between atoms: O3_17  and  C14_18
REMARK    8  A    between atoms: O4_19  and  C15_20
REMARK    9  A    between atoms: O5_21  and  C16_22
REMARK   10  A    between atoms: O6_23  and  C17_24
REMARK                            x       y       z     vdW  Elec       q    Type
REMARK                         _______ _______ _______ _____ _____    ______ ____
ROOT
ATOM      1  C   UNL     1      49.897  16.364  19.794  0.00  0.00    +0.318 C 
ATOM      2  N   UNL     1      49.221  17.647  19.585  0.00  0.00    -0.472 N 
ATOM      3  C   UNL     1      49.948  18.712  19.110  0.00  0.00    +0.199 A 
ATOM      4  C   UNL     1      51.306  18.591  18.828  0.00  0.00    -0.031 A 
ATOM      5  C   UNL     1      52.005  19.679  18.354  0.00  0.00    +0.087 A 
ATOM      6  C   UNL     1      51.370  20.898  18.154  0.00  0.00    -0.017 A 
ATOM      7  C   UNL     1      50.038  21.039  18.425  0.00  0.00    +0.120 A 
ATOM      8  C   UNL     1      49.312  19.950  18.907  0.00  0.00    -0.186 A 
ATOM      9  C   UNL     1      47.876  20.054  19.212  0.00  0.00    +0.446 A 
ATOM     10  C   UNL     1      47.213  18.896  19.699  0.00  0.00    -0.264 A 
ATOM     11  C   UNL     1      45.910  18.310  20.173  0.00  0.00    +0.200 C 
ATOM     18  C   UNL     1      46.673  17.009  20.371  0.00  0.00    +0.320 C 
ATOM     23  O   UNL     1      47.274  21.103  19.053  0.00  0.00    -0.472 OA
ATOM     24  C   UNL     1      47.890  17.748  19.869  0.00  0.00    +0.172 A 
ENDROOT
BRANCH  11  12
ATOM     12  O   UNL     1      44.906  18.244  19.158  0.00  0.00    -0.325 OA
ATOM     13  C   UNL     1      44.327  19.508  18.830  0.00  0.00    +0.226 C 
ENDBRANCH  11  12
BRANCH  11  14
ATOM     14  C   UNL     1      45.406  18.913  21.459  0.00  0.00    +0.457 C 
ATOM     17  O   UNL     1      44.402  18.484  21.974  0.00  0.00    -0.462 OA
BRANCH  14  15
ATOM     15  O   UNL     1      46.074  19.927  22.031  0.00  0.00    -0.343 OA
ATOM     16  C   UNL     1      45.392  21.207  22.105  0.00  0.00    +0.269 C 
ENDBRANCH  14  15
ENDBRANCH  11  14
BRANCH  18  19
ATOM     19  O   UNL     1      46.771  16.606  21.739  0.00  0.00    -0.351 OA
ATOM     20  C   UNL     1      47.501  15.394  21.936  0.00  0.00    +0.232 C 
ENDBRANCH  18  19
BRANCH  18  21
ATOM     21  O   UNL     1      46.246  15.954  19.508  0.00  0.00    -0.351 OA
ATOM     22  C   UNL     1      45.214  15.133  20.060  0.00  0.00    +0.229 C 
ENDBRANCH  18  21
TORSDOF 5
ENDMDL
MODEL 5
REMARK VINA RESULT:      -4.4      2.304      4.483
REMARK  Name = ZINC13429389
REMARK  10 active torsions:
REMARK  status: ('A' for Active; 'I' for Inactive)
REMARK    1  A    between atoms: C1_1  and  N1_2
REMARK    2  A    between atoms: C11_13  and  O5_21
REMARK    3  A    between atoms: C11_13  and  O6_23
REMARK    4  A    between atoms: C12_14  and  C13_15
REMARK    5  A    between atoms: C12_14  and  O4_19
REMARK    6  A    between atoms: C13_15  and  O3_17
REMARK    7  A    between atoms: O3_17  and  C14_18
REMARK    8  A    between atoms: O4_19  and  C15_20
REMARK    9  A    between atoms: O5_21  and  C16_22
REMARK   10  A    between atoms: O6_23  and  C17_24
REMARK                            x       y       z     vdW  Elec       q    Type
REMARK                         _______ _______ _______ _____ _____    ______ ____
ROOT
ATOM      1  C   UNL     1      48.468  19.428  20.084  0.00  0.00    +0.318 C 
ATOM      2  N   UNL     1      49.271  18.621  19.162  0.00  0.00    -0.472 N 
ATOM      3  C   UNL     1      50.148  19.254  18.315  0.00  0.00    +0.199 A 
ATOM      4  C   UNL     1      50.285  20.639  18.321  0.00  0.00    -0.031 A 
ATOM      5  C   UNL     1      51.174  21.241  17.458  0.00  0.00    +0.087 A 
ATOM      6  C   UNL     1      51.938  20.482  16.582  0.00  0.00    -0.017 A 
ATOM      7  C   UNL     1      51.819  19.120  16.560  0.00  0.00    +0.120 A 
ATOM      8  C   UNL     1      50.924  18.491  17.424  0.00  0.00    -0.186 A 
ATOM      9  C   UNL     1      50.762  17.027  17.435  0.00  0.00    +0.446 A 
ATOM     10  C   UNL     1      49.828  16.468  18.348  0.00  0.00    -0.264 A 
ATOM     11  C   UNL     1      49.195  15.206  18.870  0.00  0.00    +0.200 C 
ATOM     18  C   UNL     1      48.390  16.103  19.798  0.00  0.00    +0.320 C 
ATOM     23  O   UNL     1      51.410  16.318  16.684  0.00  0.00    -0.472 OA
ATOM     24  C   UNL     1      49.122  17.264  19.169  0.00  0.00    +0.172 A 
ENDROOT
BRANCH  11  12
ATOM     12  O   UNL     1      50.110  14.342  19.548  0.00  0.00    -0.325 OA
ATOM     13  C   UNL     1      50.929  13.562  18.674  0.00  0.00    +0.226 C 
ENDBRANCH  11  12
BRANCH  11  14
ATOM     14  C   UNL     1      48.351  14.484  17.850  0.00  0.00    +0.457 C 
ATOM     17  O   UNL     1      48.310  14.882  16.711  0.00  0.00    -0.462 OA
BRANCH  14  15
ATOM     15  O   UNL     1      47.647  13.400  18.210  0.00  0.00    -0.343 OA
ATOM     16  C   UNL     1      47.215  12.512  17.144  0.00  0.00    +0.269 C 
ENDBRANCH  14  15
ENDBRANCH  11  14
BRANCH  18  19
ATOM     19  O   UNL     1      46.987  16.095  19.527  0.00  0.00    -0.351 OA
ATOM     20  C   UNL     1      46.219  16.904  20.419  0.00  0.00    +0.232 C 
ENDBRANCH  18  19
BRANCH  18  21
ATOM     21  O   UNL     1      48.692  15.917  21.183  0.00  0.00    -0.351 OA
ATOM     22  C   UNL     1      47.949  14.864  21.802  0.00  0.00    +0.229 C 
ENDBRANCH  18  21
TORSDOF 5
ENDMDL
MODEL 6
REMARK VINA RESULT:      -4.4      3.252      5.876
REMARK  Name = ZINC13429389
REMARK  10 active torsions:
REMARK  status: ('A' for Active; 'I' for Inactive)
REMARK    1  A    between atoms: C1_1  and  N1_2
REMARK    2  A    between atoms: C11_13  and  O5_21
REMARK    3  A    between atoms: C11_13  and  O6_23
REMARK    4  A    between atoms: C12_14  and  C13_15
REMARK    5  A    between atoms: C12_14  and  O4_19
REMARK    6  A    between atoms: C13_15  and  O3_17
REMARK    7  A    between atoms: O3_17  and  C14_18
REMARK    8  A    between atoms: O4_19  and  C15_20
REMARK    9  A    between atoms: O5_21  and  C16_22
REMARK   10  A    between atoms: O6_23  and  C17_24
REMARK                            x       y       z     vdW  Elec       q    Type
REMARK                         _______ _______ _______ _____ _____    ______ ____
ROOT
ATOM      1  C   UNL     1      45.848  18.133  18.039  0.00  0.00    +0.318 C 
ATOM      2  N   UNL     1      45.567  17.136  19.076  0.00  0.00    -0.472 N 
ATOM      3  C   UNL     1      44.697  17.458  20.089  0.00  0.00    +0.199 A 
ATOM      4  C   UNL     1      44.084  18.706  20.145  0.00  0.00    -0.031 A 
ATOM      5  C   UNL     1      43.217  18.996  21.176  0.00  0.00    +0.087 A 
ATOM      6  C   UNL     1      42.946  18.056  22.161  0.00  0.00    -0.017 A 
ATOM      7  C   UNL     1      43.538  16.824  22.125  0.00  0.00    +0.120 A 
ATOM      8  C   UNL     1      44.419  16.511  21.091  0.00  0.00    -0.186 A 
ATOM      9  C   UNL     1      45.079  15.197  21.011  0.00  0.00    +0.446 A 
ATOM     10  C   UNL     1      45.963  14.961  19.925  0.00  0.00    -0.264 A 
ATOM     11  C   UNL     1      46.890  13.979  19.260  0.00  0.00    +0.200 C 
ATOM     18  C   UNL     1      47.140  15.060  18.220  0.00  0.00    +0.320 C 
ATOM     23  O   UNL     1      44.873  14.338  21.853  0.00  0.00    -0.472 OA
ATOM     24  C   UNL     1      46.178  15.918  19.005  0.00  0.00    +0.172 A 
ENDROOT
BRANCH  11  12
ATOM     12  O   UNL     1      46.227  12.821  18.745  0.00  0.00    -0.325 OA
ATOM     13  C   UNL     1      44.802  12.901  18.785  0.00  0.00    +0.226 C 
ENDBRANCH  11  12
BRANCH  11  14
ATOM     14  C   UNL     1      48.107  13.642  20.082  0.00  0.00    +0.457 C 
ATOM     17  O   UNL     1      48.882  12.801  19.695  0.00  0.00    -0.462 OA
BRANCH  14  15
ATOM     15  O   UNL     1      48.328  14.277  21.243  0.00  0.00    -0.343 OA
ATOM     16  C   UNL     1      48.319  13.468  22.449  0.00  0.00    +0.269 C 
ENDBRANCH  14  15
ENDBRANCH  11  14
BRANCH  18  19
ATOM     19  O   UNL     1      48.481  15.554  18.220  0.00  0.00    -0.351 OA
ATOM     20  C   UNL     1      48.722  16.581  17.256  0.00  0.00    +0.232 C 
ENDBRANCH  18  19
BRANCH  18  21
ATOM     21  O   UNL     1      46.671  14.721  16.913  0.00  0.00    -0.351 OA
ATOM     22  C   UNL     1      47.567  13.889  16.172  0.00  0.00    +0.229 C 
ENDBRANCH  18  21
TORSDOF 5
ENDMDL
MODEL 7
REMARK VINA RESULT:      -4.3      2.566      5.117
REMARK  Name = ZINC13429389
REMARK  10 active torsions:
REMARK  status: ('A' for Active; 'I' for Inactive)
REMARK    1  A    between atoms: C1_1  and  N1_2
REMARK    2  A    between atoms: C11_13  and  O5_21
REMARK    3  A    between atoms: C11_13  and  O6_23
REMARK    4  A    between atoms: C12_14  and  C13_15
REMARK    5  A    between atoms: C12_14  and  O4_19
REMARK    6  A    between atoms: C13_15  and  O3_17
REMARK    7  A    between atoms: O3_17  and  C14_18
REMARK    8  A    between atoms: O4_19  and  C15_20
REMARK    9  A    between atoms: O5_21  and  C16_22
REMARK   10  A    between atoms: O6_23  and  C17_24
REMARK                            x       y       z     vdW  Elec       q    Type
REMARK                         _______ _______ _______ _____ _____    ______ ____
ROOT
ATOM      1  C   UNL     1      44.872  19.232  18.454  0.00  0.00    +0.318 C 
ATOM      2  N   UNL     1      45.945  19.814  19.264  0.00  0.00    -0.472 N 
ATOM      3  C   UNL     1      45.733  21.024  19.878  0.00  0.00    +0.199 A 
ATOM      4  C   UNL     1      44.524  21.699  19.744  0.00  0.00    -0.031 A 
ATOM      5  C   UNL     1      44.344  22.912  20.374  0.00  0.00    +0.087 A 
ATOM      6  C   UNL     1      45.358  23.468  21.143  0.00  0.00    -0.017 A 
ATOM      7  C   UNL     1      46.553  22.821  21.287  0.00  0.00    +0.120 A 
ATOM      8  C   UNL     1      46.755  21.594  20.657  0.00  0.00    -0.186 A 
ATOM      9  C   UNL     1      48.026  20.862  20.785  0.00  0.00    +0.446 A 
ATOM     10  C   UNL     1      48.148  19.618  20.110  0.00  0.00    -0.264 A 
ATOM     11  C   UNL     1      49.039  18.442  19.810  0.00  0.00    +0.200 C 
ATOM     18  C   UNL     1      47.886  17.897  18.982  0.00  0.00    +0.320 C 
ATOM     23  O   UNL     1      48.946  21.310  21.449  0.00  0.00    -0.472 OA
ATOM     24  C   UNL     1      47.125  19.138  19.382  0.00  0.00    +0.172 A 
ENDROOT
BRANCH  11  12
ATOM     12  O   UNL     1      49.353  17.651  20.959  0.00  0.00    -0.325 OA
ATOM     13  C   UNL     1      50.324  18.242  21.824  0.00  0.00    +0.226 C 
ENDBRANCH  11  12
BRANCH  11  14
ATOM     14  C   UNL     1      50.254  18.795  18.991  0.00  0.00    +0.457 C 
ATOM     17  O   UNL     1      51.053  17.939  18.696  0.00  0.00    -0.462 OA
BRANCH  14  15
ATOM     15  O   UNL     1      50.446  20.061  18.589  0.00  0.00    -0.343 OA
ATOM     16  C   UNL     1      51.675  20.709  19.016  0.00  0.00    +0.269 C 
ENDBRANCH  14  15
ENDBRANCH  11  14
BRANCH  18  19
ATOM     19  O   UNL     1      48.170  17.825  17.583  0.00  0.00    -0.351 OA
ATOM     20  C   UNL     1      47.107  17.276  16.802  0.00  0.00    +0.232 C 
ENDBRANCH  18  19
BRANCH  18  21
ATOM     21  O   UNL     1      47.326  16.688  19.500  0.00  0.00    -0.351 OA
ATOM     22  C   UNL     1      48.029  15.507  19.106  0.00  0.00    +0.229 C 
ENDBRANCH  18  21
TORSDOF 5
ENDMDL
MODEL 8
REMARK VINA RESULT:      -4.2      2.151      4.906
REMARK  Name = ZINC13429389
REMARK  10 active torsions:
REMARK  status: ('A' for Active; 'I' for Inactive)
REMARK    1  A    between atoms: C1_1  and  N1_2
REMARK    2  A    between atoms: C11_13  and  O5_21
REMARK    3  A    between atoms: C11_13  and  O6_23
REMARK    4  A    between atoms: C12_14  and  C13_15
REMARK    5  A    between atoms: C12_14  and  O4_19
REMARK    6  A    between atoms: C13_15  and  O3_17
REMARK    7  A    between atoms: O3_17  and  C14_18
REMARK    8  A    between atoms: O4_19  and  C15_20
REMARK    9  A    between atoms: O5_21  and  C16_22
REMARK   10  A    between atoms: O6_23  and  C17_24
REMARK                            x       y       z     vdW  Elec       q    Type
REMARK                         _______ _______ _______ _____ _____    ______ ____
ROOT
ATOM      1  C   UNL     1      49.116  20.770  19.084  0.00  0.00    +0.318 C 
ATOM      2  N   UNL     1      48.147  19.683  18.921  0.00  0.00    -0.472 N 
ATOM      3  C   UNL     1      46.805  19.973  18.987  0.00  0.00    +0.199 A 
ATOM      4  C   UNL     1      46.357  21.273  19.202  0.00  0.00    -0.031 A 
ATOM      5  C   UNL     1      45.005  21.530  19.263  0.00  0.00    +0.087 A 
ATOM      6  C   UNL     1      44.082  20.504  19.109  0.00  0.00    -0.017 A 
ATOM      7  C   UNL     1      44.500  19.220  18.897  0.00  0.00    +0.120 A 
ATOM      8  C   UNL     1      45.864  18.939  18.834  0.00  0.00    -0.186 A 
ATOM      9  C   UNL     1      46.361  17.572  18.606  0.00  0.00    +0.446 A 
ATOM     10  C   UNL     1      47.767  17.374  18.556  0.00  0.00    -0.264 A 
ATOM     11  C   UNL     1      48.882  16.379  18.382  0.00  0.00    +0.200 C 
ATOM     18  C   UNL     1      49.834  17.552  18.563  0.00  0.00    +0.320 C 
ATOM     23  O   UNL     1      45.589  16.638  18.466  0.00  0.00    -0.472 OA
ATOM     24  C   UNL     1      48.604  18.414  18.712  0.00  0.00    +0.172 A 
ENDROOT
BRANCH  11  12
ATOM     12  O   UNL     1      48.929  15.789  17.081  0.00  0.00    -0.325 OA
ATOM     13  C   UNL     1      47.959  14.762  16.873  0.00  0.00    +0.226 C 
ENDBRANCH  11  12
BRANCH  11  14
ATOM     14  C   UNL     1      48.965  15.361  19.491  0.00  0.00    +0.457 C 
ATOM     17  O   UNL     1      49.874  14.567  19.515  0.00  0.00    -0.462 OA
BRANCH  14  15
ATOM     15  O   UNL     1      48.027  15.338  20.451  0.00  0.00    -0.343 OA
ATOM     16  C   UNL     1      47.189  14.155  20.526  0.00  0.00    +0.269 C 
ENDBRANCH  14  15
ENDBRANCH  11  14
BRANCH  18  19
ATOM     19  O   UNL     1      50.624  17.469  19.751  0.00  0.00    -0.351 OA
ATOM     20  C   UNL     1      51.562  18.536  19.900  0.00  0.00    +0.232 C 
ENDBRANCH  18  19
BRANCH  18  21
ATOM     21  O   UNL     1      50.607  17.851  17.399  0.00  0.00    -0.351 OA
ATOM     22  C   UNL     1      51.793  17.063  17.271  0.00  0.00    +0.229 C 
ENDBRANCH  18  21
TORSDOF 5
ENDMDL
MODEL 9
REMARK VINA RESULT:      -4.1      2.791      6.252
REMARK  Name = ZINC13429389
REMARK  10 active torsions:
REMARK  status: ('A' for Active; 'I' for Inactive)
REMARK    1  A    between atoms: C1_1  and  N1_2
REMARK    2  A    between atoms: C11_13  and  O5_21
REMARK    3  A    between atoms: C11_13  and  O6_23
REMARK    4  A    between atoms: C12_14  and  C13_15
REMARK    5  A    between atoms: C12_14  and  O4_19
REMARK    6  A    between atoms: C13_15  and  O3_17
REMARK    7  A    between atoms: O3_17  and  C14_18
REMARK    8  A    between atoms: O4_19  and  C15_20
REMARK    9  A    between atoms: O5_21  and  C16_22
REMARK   10  A    between atoms: O6_23  and  C17_24
REMARK                            x       y       z     vdW  Elec       q    Type
REMARK                         _______ _______ _______ _____ _____    ______ ____
ROOT
ATOM      1  C   UNL     1      48.441  21.167  21.382  0.00  0.00    +0.318 C 
ATOM      2  N   UNL     1      48.391  20.198  20.284  0.00  0.00    -0.472 N 
ATOM      3  C   UNL     1      47.171  19.714  19.879  0.00  0.00    +0.199 A 
ATOM      4  C   UNL     1      45.991  20.127  20.491  0.00  0.00    -0.031 A 
ATOM      5  C   UNL     1      44.784  19.621  20.061  0.00  0.00    +0.087 A 
ATOM      6  C   UNL     1      44.731  18.703  19.020  0.00  0.00    -0.017 A 
ATOM      7  C   UNL     1      45.878  18.284  18.406  0.00  0.00    +0.120 A 
ATOM      8  C   UNL     1      47.109  18.782  18.828  0.00  0.00    -0.186 A 
ATOM      9  C   UNL     1      48.370  18.360  18.195  0.00  0.00    +0.446 A 
ATOM     10  C   UNL     1      49.581  18.917  18.687  0.00  0.00    -0.264 A 
ATOM     11  C   UNL     1      51.080  18.958  18.557  0.00  0.00    +0.200 C 
ATOM     18  C   UNL     1      51.060  19.957  19.703  0.00  0.00    +0.320 C 
ATOM     23  O   UNL     1      48.375  17.555  17.278  0.00  0.00    -0.472 OA
ATOM     24  C   UNL     1      49.559  19.803  19.698  0.00  0.00    +0.172 A 
ENDROOT
BRANCH  11  12
ATOM     12  O   UNL     1      51.535  19.506  17.317  0.00  0.00    -0.325 OA
ATOM     13  C   UNL     1      51.476  18.593  16.221  0.00  0.00    +0.226 C 
ENDBRANCH  11  12
BRANCH  11  14
ATOM     14  C   UNL     1      51.754  17.656  18.905  0.00  0.00    +0.457 C 
ATOM     17  O   UNL     1      51.089  16.690  19.194  0.00  0.00    -0.462 OA
BRANCH  14  15
ATOM     15  O   UNL     1      53.094  17.570  18.893  0.00  0.00    -0.343 OA
ATOM     16  C   UNL     1      53.676  16.295  19.273  0.00  0.00    +0.269 C 
ENDBRANCH  14  15
ENDBRANCH  11  14
BRANCH  18  19
ATOM     19  O   UNL     1      51.682  19.472  20.895  0.00  0.00    -0.351 OA
ATOM     20  C   UNL     1      51.647  20.395  21.985  0.00  0.00    +0.232 C 
ENDBRANCH  18  19
BRANCH  18  21
ATOM     21  O   UNL     1      51.504  21.265  19.335  0.00  0.00    -0.351 OA
ATOM     22  C   UNL     1      52.903  21.481  19.536  0.00  0.00    +0.229 C 
ENDBRANCH  18  21
TORSDOF 5
ENDMDL
