MODEL 1
REMARK VINA RESULT:      -6.7      0.000      0.000
REMARK  Name = ZINC14642643
REMARK  12 active torsions:
REMARK  status: ('A' for Active; 'I' for Inactive)
REMARK    1  A    between atoms: C1_1  and  O1_2
REMARK    2  A    between atoms: O1_2  and  C2_3
REMARK    3  A    between atoms: C4_5  and  C8_11
REMARK    4  A    between atoms: C6_7  and  O3_10
REMARK    5  A    between atoms: C7_8  and  O2_9
REMARK    6  A    between atoms: C8_11  and  O5_13
REMARK    7  A    between atoms: O5_13  and  C9_14
REMARK    8  A    between atoms: C12_18  and  O10_35
REMARK    9  A    between atoms: C14_20  and  O9_34
REMARK   10  A    between atoms: C17_24  and  C18_26
REMARK   11  A    between atoms: C21_29  and  O8_33
REMARK   12  A    between atoms: C22_30  and  O7_32
REMARK                            x       y       z     vdW  Elec       q    Type
REMARK                         _______ _______ _______ _____ _____    ______ ____
ROOT
ATOM      8  C   UNL     1      48.827  20.002  20.913  0.00  0.00    +0.175 C 
ATOM      9  C   UNL     1      50.208  20.614  20.664  0.00  0.00    +0.109 C 
ATOM     10  C   UNL     1      50.725  20.171  19.320  0.00  0.00    -0.195 A 
ATOM     11  C   UNL     1      51.763  20.887  18.734  0.00  0.00    +0.161 A 
ATOM     14  C   UNL     1      52.265  20.507  17.500  0.00  0.00    -0.061 A 
ATOM     15  C   UNL     1      51.731  19.407  16.846  0.00  0.00    +0.159 A 
ATOM     18  C   UNL     1      50.696  18.694  17.428  0.00  0.00    -0.039 A 
ATOM     19  C   UNL     1      50.189  19.076  18.665  0.00  0.00    +0.171 A 
ATOM     20  O   UNL     1      49.166  18.356  19.197  0.00  0.00    -0.291 OA
ATOM     21  C   UNL     1      48.899  18.504  20.591  0.00  0.00    +0.254 C 
ENDROOT
BRANCH  21  22
ATOM     22  C   UNL     1      47.586  17.847  20.929  0.00  0.00    -0.089 A 
ATOM     23  C   UNL     1      47.036  18.012  22.187  0.00  0.00    +0.070 A 
ATOM     24  C   UNL     1      45.828  17.417  22.501  0.00  0.00    +0.005 A 
ATOM     25  C   UNL     1      45.171  16.644  21.558  0.00  0.00    +0.093 A 
ATOM     28  C   UNL     1      45.726  16.473  20.293  0.00  0.00    +0.080 A 
ATOM     31  C   UNL     1      46.935  17.077  19.984  0.00  0.00    +0.023 A 
BRANCH  25  26
ATOM     26  O   UNL     1      43.986  16.054  21.866  0.00  0.00    -0.487 OA
ATOM     27  H   UNL     1      43.853  15.909  22.812  0.00  0.00    +0.390 HD
ENDBRANCH  25  26
BRANCH  28  29
ATOM     29  O   UNL     1      45.085  15.716  19.363  0.00  0.00    -0.485 OA
ATOM     30  H   UNL     1      45.671  15.342  18.690  0.00  0.00    +0.389 HD
ENDBRANCH  28  29
ENDBRANCH  21  22
BRANCH  11  12
ATOM     12  O   UNL     1      52.288  21.965  19.375  0.00  0.00    -0.491 OA
ATOM     13  H   UNL     1      51.989  22.062  20.290  0.00  0.00    +0.395 HD
ENDBRANCH  11  12
BRANCH  15  16
ATOM     16  O   UNL     1      52.221  19.030  15.636  0.00  0.00    -0.491 OA
ATOM     17  H   UNL     1      52.597  18.140  15.624  0.00  0.00    +0.397 HD
ENDBRANCH  15  16
BRANCH   8   7
ATOM      7  O   UNL     1      47.846  20.639  20.052  0.00  0.00    -0.326 OA
BRANCH   7   6
ATOM      6  C   UNL     1      47.007  21.521  20.631  0.00  0.00    +0.515 C 
ATOM     32  O   UNL     1      47.425  22.302  21.462  0.00  0.00    -0.499 OA
BRANCH   6   5
ATOM      3  C   UNL     1      43.489  20.382  19.971  0.00  0.00    +0.109 A 
ATOM      4  C   UNL     1      44.827  20.362  20.318  0.00  0.00    +0.011 A 
ATOM      5  C   UNL     1      45.580  21.536  20.256  0.00  0.00    -0.080 A 
ATOM     33  C   UNL     1      44.982  22.726  19.832  0.00  0.00    +0.047 A 
ATOM     34  C   UNL     1      43.645  22.739  19.481  0.00  0.00    +0.110 A 
ATOM     37  C   UNL     1      42.895  21.568  19.549  0.00  0.00    +0.088 A 
BRANCH   3   2
ATOM      1  C   UNL     1      42.181  18.909  21.304  0.00  0.00    +0.248 C 
ATOM      2  O   UNL     1      42.754  19.240  20.037  0.00  0.00    -0.300 OA
ENDBRANCH   3   2
BRANCH  34  35
ATOM     35  O   UNL     1      43.063  23.896  19.067  0.00  0.00    -0.476 OA
ATOM     36  H   UNL     1      43.122  24.618  19.707  0.00  0.00    +0.394 HD
ENDBRANCH  34  35
BRANCH  37  38
ATOM     38  O   UNL     1      41.582  21.583  19.202  0.00  0.00    -0.471 OA
ATOM     39  H   UNL     1      41.205  20.706  19.048  0.00  0.00    +0.391 HD
ENDBRANCH  37  38
ENDBRANCH   6   5
ENDBRANCH   7   6
ENDBRANCH   8   7
TORSDOF 11
ENDMDL
MODEL 2
REMARK VINA RESULT:      -6.6      2.284      3.251
REMARK  Name = ZINC14642643
REMARK  12 active torsions:
REMARK  status: ('A' for Active; 'I' for Inactive)
REMARK    1  A    between atoms: C1_1  and  O1_2
REMARK    2  A    between atoms: O1_2  and  C2_3
REMARK    3  A    between atoms: C4_5  and  C8_11
REMARK    4  A    between atoms: C6_7  and  O3_10
REMARK    5  A    between atoms: C7_8  and  O2_9
REMARK    6  A    between atoms: C8_11  and  O5_13
REMARK    7  A    between atoms: O5_13  and  C9_14
REMARK    8  A    between atoms: C12_18  and  O10_35
REMARK    9  A    between atoms: C14_20  and  O9_34
REMARK   10  A    between atoms: C17_24  and  C18_26
REMARK   11  A    between atoms: C21_29  and  O8_33
REMARK   12  A    between atoms: C22_30  and  O7_32
REMARK                            x       y       z     vdW  Elec       q    Type
REMARK                         _______ _______ _______ _____ _____    ______ ____
ROOT
ATOM      8  C   UNL     1      48.248  17.792  19.228  0.00  0.00    +0.175 C 
ATOM      9  C   UNL     1      49.201  18.898  19.687  0.00  0.00    +0.109 C 
ATOM     10  C   UNL     1      50.095  19.305  18.543  0.00  0.00    -0.195 A 
ATOM     11  C   UNL     1      50.763  20.522  18.616  0.00  0.00    +0.161 A 
ATOM     14  C   UNL     1      51.595  20.926  17.585  0.00  0.00    -0.061 A 
ATOM     15  C   UNL     1      51.763  20.113  16.475  0.00  0.00    +0.159 A 
ATOM     18  C   UNL     1      51.097  18.901  16.400  0.00  0.00    -0.039 A 
ATOM     19  C   UNL     1      50.259  18.495  17.433  0.00  0.00    +0.171 A 
ATOM     20  O   UNL     1      49.617  17.303  17.316  0.00  0.00    -0.291 OA
ATOM     21  C   UNL     1      49.069  16.721  18.499  0.00  0.00    +0.254 C 
ENDROOT
BRANCH  21  22
ATOM     22  C   UNL     1      48.179  15.563  18.129  0.00  0.00    -0.089 A 
ATOM     23  C   UNL     1      47.558  14.826  19.121  0.00  0.00    +0.070 A 
ATOM     24  C   UNL     1      46.736  13.766  18.788  0.00  0.00    +0.005 A 
ATOM     25  C   UNL     1      46.541  13.433  17.457  0.00  0.00    +0.093 A 
ATOM     28  C   UNL     1      47.170  14.170  16.458  0.00  0.00    +0.080 A 
ATOM     31  C   UNL     1      47.989  15.234  16.800  0.00  0.00    +0.023 A 
BRANCH  25  26
ATOM     26  O   UNL     1      45.737  12.387  17.127  0.00  0.00    -0.487 OA
ATOM     27  H   UNL     1      45.362  12.444  16.238  0.00  0.00    +0.390 HD
ENDBRANCH  25  26
BRANCH  28  29
ATOM     29  O   UNL     1      46.981  13.848  15.151  0.00  0.00    -0.485 OA
ATOM     30  H   UNL     1      46.678  12.940  15.010  0.00  0.00    +0.389 HD
ENDBRANCH  28  29
ENDBRANCH  21  22
BRANCH  11  12
ATOM     12  O   UNL     1      50.599  21.319  19.705  0.00  0.00    -0.491 OA
ATOM     13  H   UNL     1      50.271  20.854  20.488  0.00  0.00    +0.395 HD
ENDBRANCH  11  12
BRANCH  15  16
ATOM     16  O   UNL     1      52.578  20.505  15.461  0.00  0.00    -0.491 OA
ATOM     17  H   UNL     1      53.324  19.911  15.304  0.00  0.00    +0.397 HD
ENDBRANCH  15  16
BRANCH   8   7
ATOM      7  O   UNL     1      47.254  18.344  18.326  0.00  0.00    -0.326 OA
BRANCH   7   6
ATOM      6  C   UNL     1      45.975  18.337  18.749  0.00  0.00    +0.515 C 
ATOM     32  O   UNL     1      45.353  17.294  18.791  0.00  0.00    -0.499 OA
BRANCH   6   5
ATOM      3  C   UNL     1      43.385  21.015  19.233  0.00  0.00    +0.109 A 
ATOM      4  C   UNL     1      43.989  19.835  18.841  0.00  0.00    +0.011 A 
ATOM      5  C   UNL     1      45.327  19.598  19.162  0.00  0.00    -0.080 A 
ATOM     33  C   UNL     1      46.055  20.557  19.871  0.00  0.00    +0.047 A 
ATOM     34  C   UNL     1      45.447  21.738  20.256  0.00  0.00    +0.110 A 
ATOM     37  C   UNL     1      44.111  21.970  19.939  0.00  0.00    +0.088 A 
BRANCH   3   2
ATOM      1  C   UNL     1      41.321  20.133  18.444  0.00  0.00    +0.248 C 
ATOM      2  O   UNL     1      42.080  21.244  18.927  0.00  0.00    -0.300 OA
ENDBRANCH   3   2
BRANCH  34  35
ATOM     35  O   UNL     1      46.154  22.673  20.945  0.00  0.00    -0.476 OA
ATOM     36  H   UNL     1      46.932  22.323  21.400  0.00  0.00    +0.394 HD
ENDBRANCH  34  35
BRANCH  37  38
ATOM     38  O   UNL     1      43.516  23.130  20.319  0.00  0.00    -0.471 OA
ATOM     39  H   UNL     1      43.757  23.893  19.775  0.00  0.00    +0.391 HD
ENDBRANCH  37  38
ENDBRANCH   6   5
ENDBRANCH   7   6
ENDBRANCH   8   7
TORSDOF 11
ENDMDL
MODEL 3
REMARK VINA RESULT:      -6.6      2.006      2.986
REMARK  Name = ZINC14642643
REMARK  12 active torsions:
REMARK  status: ('A' for Active; 'I' for Inactive)
REMARK    1  A    between atoms: C1_1  and  O1_2
REMARK    2  A    between atoms: O1_2  and  C2_3
REMARK    3  A    between atoms: C4_5  and  C8_11
REMARK    4  A    between atoms: C6_7  and  O3_10
REMARK    5  A    between atoms: C7_8  and  O2_9
REMARK    6  A    between atoms: C8_11  and  O5_13
REMARK    7  A    between atoms: O5_13  and  C9_14
REMARK    8  A    between atoms: C12_18  and  O10_35
REMARK    9  A    between atoms: C14_20  and  O9_34
REMARK   10  A    between atoms: C17_24  and  C18_26
REMARK   11  A    between atoms: C21_29  and  O8_33
REMARK   12  A    between atoms: C22_30  and  O7_32
REMARK                            x       y       z     vdW  Elec       q    Type
REMARK                         _______ _______ _______ _____ _____    ______ ____
ROOT
ATOM      8  C   UNL     1      47.767  18.243  19.528  0.00  0.00    +0.175 C 
ATOM      9  C   UNL     1      48.884  19.268  19.736  0.00  0.00    +0.109 C 
ATOM     10  C   UNL     1      49.851  19.206  18.581  0.00  0.00    -0.195 A 
ATOM     11  C   UNL     1      50.712  20.276  18.371  0.00  0.00    +0.161 A 
ATOM     14  C   UNL     1      51.616  20.252  17.322  0.00  0.00    -0.061 A 
ATOM     15  C   UNL     1      51.663  19.154  16.476  0.00  0.00    +0.159 A 
ATOM     18  C   UNL     1      50.804  18.088  16.683  0.00  0.00    -0.039 A 
ATOM     19  C   UNL     1      49.895  18.111  17.735  0.00  0.00    +0.171 A 
ATOM     20  O   UNL     1      49.064  17.048  17.897  0.00  0.00    -0.291 OA
ATOM     21  C   UNL     1      48.408  16.900  19.156  0.00  0.00    +0.254 C 
ENDROOT
BRANCH  21  22
ATOM     22  C   UNL     1      47.342  15.840  19.051  0.00  0.00    -0.089 A 
ATOM     23  C   UNL     1      46.479  15.622  20.110  0.00  0.00    +0.070 A 
ATOM     24  C   UNL     1      45.496  14.655  20.017  0.00  0.00    +0.005 A 
ATOM     25  C   UNL     1      45.380  13.893  18.866  0.00  0.00    +0.093 A 
ATOM     28  C   UNL     1      46.251  14.108  17.801  0.00  0.00    +0.080 A 
ATOM     31  C   UNL     1      47.231  15.083  17.900  0.00  0.00    +0.023 A 
BRANCH  25  26
ATOM     26  O   UNL     1      44.417  12.938  18.774  0.00  0.00    -0.487 OA
ATOM     27  H   UNL     1      44.167  12.548  19.623  0.00  0.00    +0.390 HD
ENDBRANCH  25  26
BRANCH  28  29
ATOM     29  O   UNL     1      46.141  13.364  16.669  0.00  0.00    -0.485 OA
ATOM     30  H   UNL     1      45.465  13.682  16.054  0.00  0.00    +0.389 HD
ENDBRANCH  28  29
ENDBRANCH  21  22
BRANCH  11  12
ATOM     12  O   UNL     1      50.667  21.353  19.201  0.00  0.00    -0.491 OA
ATOM     13  H   UNL     1      50.320  22.155  18.786  0.00  0.00    +0.395 HD
ENDBRANCH  11  12
BRANCH  15  16
ATOM     16  O   UNL     1      52.548  19.126  15.446  0.00  0.00    -0.491 OA
ATOM     17  H   UNL     1      52.327  18.487  14.755  0.00  0.00    +0.397 HD
ENDBRANCH  15  16
BRANCH   8   7
ATOM      7  O   UNL     1      46.893  18.681  18.455  0.00  0.00    -0.326 OA
BRANCH   7   6
ATOM      6  C   UNL     1      46.079  19.722  18.717  0.00  0.00    +0.515 C 
ATOM     32  O   UNL     1      46.443  20.856  18.472  0.00  0.00    -0.499 OA
BRANCH   6   5
ATOM      3  C   UNL     1      42.365  19.842  19.269  0.00  0.00    +0.109 A 
ATOM      4  C   UNL     1      43.614  20.069  18.722  0.00  0.00    +0.011 A 
ATOM      5  C   UNL     1      44.744  19.486  19.301  0.00  0.00    -0.080 A 
ATOM     33  C   UNL     1      44.611  18.685  20.437  0.00  0.00    +0.047 A 
ATOM     34  C   UNL     1      43.360  18.465  20.983  0.00  0.00    +0.110 A 
ATOM     37  C   UNL     1      42.234  19.042  20.402  0.00  0.00    +0.088 A 
BRANCH   3   2
ATOM      1  C   UNL     1      41.181  21.829  18.715  0.00  0.00    +0.248 C 
ATOM      2  O   UNL     1      41.264  20.402  18.702  0.00  0.00    -0.300 OA
ENDBRANCH   3   2
BRANCH  34  35
ATOM     35  O   UNL     1      43.229  17.686  22.090  0.00  0.00    -0.476 OA
ATOM     36  H   UNL     1      42.331  17.360  22.239  0.00  0.00    +0.394 HD
ENDBRANCH  34  35
BRANCH  37  38
ATOM     38  O   UNL     1      41.006  18.826  20.940  0.00  0.00    -0.471 OA
ATOM     39  H   UNL     1      40.473  19.627  21.041  0.00  0.00    +0.391 HD
ENDBRANCH  37  38
ENDBRANCH   6   5
ENDBRANCH   7   6
ENDBRANCH   8   7
TORSDOF 11
ENDMDL
MODEL 4
REMARK VINA RESULT:      -6.5      2.273      3.461
REMARK  Name = ZINC14642643
REMARK  12 active torsions:
REMARK  status: ('A' for Active; 'I' for Inactive)
REMARK    1  A    between atoms: C1_1  and  O1_2
REMARK    2  A    between atoms: O1_2  and  C2_3
REMARK    3  A    between atoms: C4_5  and  C8_11
REMARK    4  A    between atoms: C6_7  and  O3_10
REMARK    5  A    between atoms: C7_8  and  O2_9
REMARK    6  A    between atoms: C8_11  and  O5_13
REMARK    7  A    between atoms: O5_13  and  C9_14
REMARK    8  A    between atoms: C12_18  and  O10_35
REMARK    9  A    between atoms: C14_20  and  O9_34
REMARK   10  A    between atoms: C17_24  and  C18_26
REMARK   11  A    between atoms: C21_29  and  O8_33
REMARK   12  A    between atoms: C22_30  and  O7_32
REMARK                            x       y       z     vdW  Elec       q    Type
REMARK                         _______ _______ _______ _____ _____    ______ ____
ROOT
ATOM      8  C   UNL     1      48.193  17.639  19.383  0.00  0.00    +0.175 C 
ATOM      9  C   UNL     1      49.126  18.746  19.880  0.00  0.00    +0.109 C 
ATOM     10  C   UNL     1      49.998  19.224  18.747  0.00  0.00    -0.195 A 
ATOM     11  C   UNL     1      50.638  20.451  18.868  0.00  0.00    +0.161 A 
ATOM     14  C   UNL     1      51.449  20.921  17.847  0.00  0.00    -0.061 A 
ATOM     15  C   UNL     1      51.622  20.162  16.699  0.00  0.00    +0.159 A 
ATOM     18  C   UNL     1      50.983  18.940  16.577  0.00  0.00    -0.039 A 
ATOM     19  C   UNL     1      50.167  18.468  17.600  0.00  0.00    +0.171 A 
ATOM     20  O   UNL     1      49.550  17.269  17.436  0.00  0.00    -0.291 OA
ATOM     21  C   UNL     1      49.029  16.622  18.597  0.00  0.00    +0.254 C 
ENDROOT
BRANCH  21  22
ATOM     22  C   UNL     1      48.161  15.461  18.185  0.00  0.00    -0.089 A 
ATOM     23  C   UNL     1      47.571  14.664  19.149  0.00  0.00    +0.070 A 
ATOM     24  C   UNL     1      46.769  13.602  18.777  0.00  0.00    +0.005 A 
ATOM     25  C   UNL     1      46.564  13.326  17.435  0.00  0.00    +0.093 A 
ATOM     28  C   UNL     1      47.162  14.124  16.463  0.00  0.00    +0.080 A 
ATOM     31  C   UNL     1      47.961  15.190  16.844  0.00  0.00    +0.023 A 
BRANCH  25  26
ATOM     26  O   UNL     1      45.780  12.278  17.066  0.00  0.00    -0.487 OA
ATOM     27  H   UNL     1      46.235  11.615  16.530  0.00  0.00    +0.390 HD
ENDBRANCH  25  26
BRANCH  28  29
ATOM     29  O   UNL     1      46.963  13.858  15.145  0.00  0.00    -0.485 OA
ATOM     30  H   UNL     1      47.578  13.207  14.778  0.00  0.00    +0.389 HD
ENDBRANCH  28  29
ENDBRANCH  21  22
BRANCH  11  12
ATOM     12  O   UNL     1      50.469  21.195  19.993  0.00  0.00    -0.491 OA
ATOM     13  H   UNL     1      50.493  22.150  19.842  0.00  0.00    +0.395 HD
ENDBRANCH  11  12
BRANCH  15  16
ATOM     16  O   UNL     1      52.416  20.619  15.696  0.00  0.00    -0.491 OA
ATOM     17  H   UNL     1      51.999  20.599  14.824  0.00  0.00    +0.397 HD
ENDBRANCH  15  16
BRANCH   8   7
ATOM      7  O   UNL     1      47.176  18.209  18.517  0.00  0.00    -0.326 OA
BRANCH   7   6
ATOM      6  C   UNL     1      45.913  18.222  18.986  0.00  0.00    +0.515 C 
ATOM     32  O   UNL     1      45.303  17.180  19.121  0.00  0.00    -0.499 OA
BRANCH   6   5
ATOM      3  C   UNL     1      45.311  21.600  20.514  0.00  0.00    +0.109 A 
ATOM      4  C   UNL     1      45.914  20.399  20.193  0.00  0.00    +0.011 A 
ATOM      5  C   UNL     1      45.270  19.503  19.336  0.00  0.00    -0.080 A 
ATOM     33  C   UNL     1      44.012  19.819  18.816  0.00  0.00    +0.047 A 
ATOM     34  C   UNL     1      43.411  21.020  19.145  0.00  0.00    +0.110 A 
ATOM     37  C   UNL     1      44.057  21.913  19.994  0.00  0.00    +0.088 A 
BRANCH   3   2
ATOM      1  C   UNL     1      47.290  22.174  21.702  0.00  0.00    +0.248 C 
ATOM      2  O   UNL     1      45.940  22.476  21.342  0.00  0.00    -0.300 OA
ENDBRANCH   3   2
BRANCH  34  35
ATOM     35  O   UNL     1      42.186  21.327  18.640  0.00  0.00    -0.476 OA
ATOM     36  H   UNL     1      41.707  20.570  18.279  0.00  0.00    +0.394 HD
ENDBRANCH  34  35
BRANCH  37  38
ATOM     38  O   UNL     1      43.465  23.092  20.317  0.00  0.00    -0.471 OA
ATOM     39  H   UNL     1      43.224  23.634  19.554  0.00  0.00    +0.391 HD
ENDBRANCH  37  38
ENDBRANCH   6   5
ENDBRANCH   7   6
ENDBRANCH   8   7
TORSDOF 11
ENDMDL
MODEL 5
REMARK VINA RESULT:      -6.4      1.699      6.577
REMARK  Name = ZINC14642643
REMARK  12 active torsions:
REMARK  status: ('A' for Active; 'I' for Inactive)
REMARK    1  A    between atoms: C1_1  and  O1_2
REMARK    2  A    between atoms: O1_2  and  C2_3
REMARK    3  A    between atoms: C4_5  and  C8_11
REMARK    4  A    between atoms: C6_7  and  O3_10
REMARK    5  A    between atoms: C7_8  and  O2_9
REMARK    6  A    between atoms: C8_11  and  O5_13
REMARK    7  A    between atoms: O5_13  and  C9_14
REMARK    8  A    between atoms: C12_18  and  O10_35
REMARK    9  A    between atoms: C14_20  and  O9_34
REMARK   10  A    between atoms: C17_24  and  C18_26
REMARK   11  A    between atoms: C21_29  and  O8_33
REMARK   12  A    between atoms: C22_30  and  O7_32
REMARK                            x       y       z     vdW  Elec       q    Type
REMARK                         _______ _______ _______ _____ _____    ______ ____
ROOT
ATOM      8  C   UNL     1      46.006  19.279  20.900  0.00  0.00    +0.175 C 
ATOM      9  C   UNL     1      46.840  18.219  21.625  0.00  0.00    +0.109 C 
ATOM     10  C   UNL     1      46.689  16.891  20.929  0.00  0.00    -0.195 A 
ATOM     11  C   UNL     1      47.627  15.896  21.177  0.00  0.00    +0.161 A 
ATOM     14  C   UNL     1      47.518  14.662  20.557  0.00  0.00    -0.061 A 
ATOM     15  C   UNL     1      46.468  14.418  19.685  0.00  0.00    +0.159 A 
ATOM     18  C   UNL     1      45.534  15.409  19.436  0.00  0.00    -0.039 A 
ATOM     19  C   UNL     1      45.643  16.649  20.055  0.00  0.00    +0.171 A 
ATOM     20  O   UNL     1      44.711  17.597  19.775  0.00  0.00    -0.291 OA
ATOM     21  C   UNL     1      44.602  18.709  20.664  0.00  0.00    +0.254 C 
ENDROOT
BRANCH  21  22
ATOM     22  C   UNL     1      43.721  19.766  20.050  0.00  0.00    -0.089 A 
ATOM     23  C   UNL     1      42.698  19.399  19.195  0.00  0.00    +0.070 A 
ATOM     24  C   UNL     1      41.882  20.364  18.633  0.00  0.00    +0.005 A 
ATOM     25  C   UNL     1      42.097  21.703  18.918  0.00  0.00    +0.093 A 
ATOM     28  C   UNL     1      43.131  22.073  19.773  0.00  0.00    +0.080 A 
ATOM     31  C   UNL     1      43.940  21.100  20.337  0.00  0.00    +0.023 A 
BRANCH  25  26
ATOM     26  O   UNL     1      41.300  22.654  18.362  0.00  0.00    -0.487 OA
ATOM     27  H   UNL     1      40.381  22.380  18.247  0.00  0.00    +0.390 HD
ENDBRANCH  25  26
BRANCH  28  29
ATOM     29  O   UNL     1      43.345  23.386  20.056  0.00  0.00    -0.485 OA
ATOM     30  H   UNL     1      44.270  23.659  19.974  0.00  0.00    +0.389 HD
ENDBRANCH  28  29
ENDBRANCH  21  22
BRANCH  11  12
ATOM     12  O   UNL     1      48.656  16.134  22.033  0.00  0.00    -0.491 OA
ATOM     13  H   UNL     1      49.531  16.009  21.641  0.00  0.00    +0.395 HD
ENDBRANCH  11  12
BRANCH  15  16
ATOM     16  O   UNL     1      46.358  13.208  19.075  0.00  0.00    -0.491 OA
ATOM     17  H   UNL     1      45.519  13.076  18.613  0.00  0.00    +0.397 HD
ENDBRANCH  15  16
BRANCH   8   7
ATOM      7  O   UNL     1      46.623  19.600  19.625  0.00  0.00    -0.326 OA
BRANCH   7   6
ATOM      6  C   UNL     1      47.744  20.346  19.661  0.00  0.00    +0.515 C 
ATOM     32  O   UNL     1      47.771  21.374  20.310  0.00  0.00    -0.499 OA
BRANCH   6   5
ATOM      3  C   UNL     1      50.153  18.211  17.725  0.00  0.00    +0.109 A 
ATOM      4  C   UNL     1      49.033  18.608  18.431  0.00  0.00    +0.011 A 
ATOM      5  C   UNL     1      48.940  19.917  18.911  0.00  0.00    -0.080 A 
ATOM     33  C   UNL     1      49.985  20.817  18.687  0.00  0.00    +0.047 A 
ATOM     34  C   UNL     1      51.105  20.413  17.985  0.00  0.00    +0.110 A 
ATOM     37  C   UNL     1      51.193  19.110  17.502  0.00  0.00    +0.088 A 
BRANCH   3   2
ATOM      1  C   UNL     1      49.110  16.090  17.457  0.00  0.00    +0.248 C 
ATOM      2  O   UNL     1      50.240  16.940  17.250  0.00  0.00    -0.300 OA
ENDBRANCH   3   2
BRANCH  34  35
ATOM     35  O   UNL     1      52.123  21.288  17.766  0.00  0.00    -0.476 OA
ATOM     36  H   UNL     1      52.502  21.661  18.573  0.00  0.00    +0.394 HD
ENDBRANCH  34  35
BRANCH  37  38
ATOM     38  O   UNL     1      52.294  18.714  16.813  0.00  0.00    -0.471 OA
ATOM     39  H   UNL     1      52.880  19.439  16.555  0.00  0.00    +0.391 HD
ENDBRANCH  37  38
ENDBRANCH   6   5
ENDBRANCH   7   6
ENDBRANCH   8   7
TORSDOF 11
ENDMDL
MODEL 6
REMARK VINA RESULT:      -6.4      3.366      5.458
REMARK  Name = ZINC14642643
REMARK  12 active torsions:
REMARK  status: ('A' for Active; 'I' for Inactive)
REMARK    1  A    between atoms: C1_1  and  O1_2
REMARK    2  A    between atoms: O1_2  and  C2_3
REMARK    3  A    between atoms: C4_5  and  C8_11
REMARK    4  A    between atoms: C6_7  and  O3_10
REMARK    5  A    between atoms: C7_8  and  O2_9
REMARK    6  A    between atoms: C8_11  and  O5_13
REMARK    7  A    between atoms: O5_13  and  C9_14
REMARK    8  A    between atoms: C12_18  and  O10_35
REMARK    9  A    between atoms: C14_20  and  O9_34
REMARK   10  A    between atoms: C17_24  and  C18_26
REMARK   11  A    between atoms: C21_29  and  O8_33
REMARK   12  A    between atoms: C22_30  and  O7_32
REMARK                            x       y       z     vdW  Elec       q    Type
REMARK                         _______ _______ _______ _____ _____    ______ ____
ROOT
ATOM      8  C   UNL     1      49.320  16.638  18.180  0.00  0.00    +0.175 C 
ATOM      9  C   UNL     1      49.506  17.985  18.883  0.00  0.00    +0.109 C 
ATOM     10  C   UNL     1      50.349  18.893  18.026  0.00  0.00    -0.195 A 
ATOM     11  C   UNL     1      50.332  20.259  18.281  0.00  0.00    +0.161 A 
ATOM     14  C   UNL     1      51.096  21.124  17.514  0.00  0.00    -0.061 A 
ATOM     15  C   UNL     1      51.884  20.624  16.488  0.00  0.00    +0.159 A 
ATOM     18  C   UNL     1      51.901  19.263  16.232  0.00  0.00    -0.039 A 
ATOM     19  C   UNL     1      51.132  18.394  16.999  0.00  0.00    +0.171 A 
ATOM     20  O   UNL     1      51.169  17.067  16.708  0.00  0.00    -0.291 OA
ATOM     21  C   UNL     1      50.693  16.154  17.696  0.00  0.00    +0.254 C 
ENDROOT
BRANCH  21  22
ATOM     22  C   UNL     1      50.564  14.778  17.096  0.00  0.00    -0.089 A 
ATOM     23  C   UNL     1      49.826  13.807  17.748  0.00  0.00    +0.070 A 
ATOM     24  C   UNL     1      49.700  12.544  17.199  0.00  0.00    +0.005 A 
ATOM     25  C   UNL     1      50.322  12.247  15.998  0.00  0.00    +0.093 A 
ATOM     28  C   UNL     1      51.070  13.222  15.343  0.00  0.00    +0.080 A 
ATOM     31  C   UNL     1      51.188  14.486  15.897  0.00  0.00    +0.023 A 
BRANCH  25  26
ATOM     26  O   UNL     1      50.204  11.004  15.458  0.00  0.00    -0.487 OA
ATOM     27  H   UNL     1      49.469  10.913  14.836  0.00  0.00    +0.390 HD
ENDBRANCH  25  26
BRANCH  28  29
ATOM     29  O   UNL     1      51.682  12.934  14.164  0.00  0.00    -0.485 OA
ATOM     30  H   UNL     1      52.544  12.506  14.263  0.00  0.00    +0.389 HD
ENDBRANCH  28  29
ENDBRANCH  21  22
BRANCH  11  12
ATOM     12  O   UNL     1      49.561  20.750  19.287  0.00  0.00    -0.491 OA
ATOM     13  H   UNL     1      49.897  20.553  20.173  0.00  0.00    +0.395 HD
ENDBRANCH  11  12
BRANCH  15  16
ATOM     16  O   UNL     1      52.636  21.468  15.735  0.00  0.00    -0.491 OA
ATOM     17  H   UNL     1      52.302  22.375  15.708  0.00  0.00    +0.397 HD
ENDBRANCH  15  16
BRANCH   8   7
ATOM      7  O   UNL     1      48.430  16.796  17.044  0.00  0.00    -0.326 OA
BRANCH   7   6
ATOM      6  C   UNL     1      47.173  16.332  17.184  0.00  0.00    +0.515 C 
ATOM     32  O   UNL     1      46.802  15.375  16.533  0.00  0.00    -0.499 OA
BRANCH   6   5
ATOM      3  C   UNL     1      45.043  18.941  18.847  0.00  0.00    +0.109 A 
ATOM      4  C   UNL     1      45.916  18.333  17.965  0.00  0.00    +0.011 A 
ATOM      5  C   UNL     1      46.245  16.986  18.127  0.00  0.00    -0.080 A 
ATOM     33  C   UNL     1      45.700  16.258  19.188  0.00  0.00    +0.047 A 
ATOM     34  C   UNL     1      44.831  16.872  20.071  0.00  0.00    +0.110 A 
ATOM     37  C   UNL     1      44.500  18.214  19.903  0.00  0.00    +0.088 A 
BRANCH   3   2
ATOM      1  C   UNL     1      45.788  21.196  18.722  0.00  0.00    +0.248 C 
ATOM      2  O   UNL     1      44.717  20.251  18.686  0.00  0.00    -0.300 OA
ENDBRANCH   3   2
BRANCH  34  35
ATOM     35  O   UNL     1      44.300  16.165  21.104  0.00  0.00    -0.476 OA
ATOM     36  H   UNL     1      44.689  15.288  21.223  0.00  0.00    +0.394 HD
ENDBRANCH  34  35
BRANCH  37  38
ATOM     38  O   UNL     1      43.648  18.816  20.772  0.00  0.00    -0.471 OA
ATOM     39  H   UNL     1      43.926  18.766  21.697  0.00  0.00    +0.391 HD
ENDBRANCH  37  38
ENDBRANCH   6   5
ENDBRANCH   7   6
ENDBRANCH   8   7
TORSDOF 11
ENDMDL
MODEL 7
REMARK VINA RESULT:      -6.3      1.776      7.956
REMARK  Name = ZINC14642643
REMARK  12 active torsions:
REMARK  status: ('A' for Active; 'I' for Inactive)
REMARK    1  A    between atoms: C1_1  and  O1_2
REMARK    2  A    between atoms: O1_2  and  C2_3
REMARK    3  A    between atoms: C4_5  and  C8_11
REMARK    4  A    between atoms: C6_7  and  O3_10
REMARK    5  A    between atoms: C7_8  and  O2_9
REMARK    6  A    between atoms: C8_11  and  O5_13
REMARK    7  A    between atoms: O5_13  and  C9_14
REMARK    8  A    between atoms: C12_18  and  O10_35
REMARK    9  A    between atoms: C14_20  and  O9_34
REMARK   10  A    between atoms: C17_24  and  C18_26
REMARK   11  A    between atoms: C21_29  and  O8_33
REMARK   12  A    between atoms: C22_30  and  O7_32
REMARK                            x       y       z     vdW  Elec       q    Type
REMARK                         _______ _______ _______ _____ _____    ______ ____
ROOT
ATOM      8  C   UNL     1      47.251  18.746  20.549  0.00  0.00    +0.175 C 
ATOM      9  C   UNL     1      45.860  18.523  21.147  0.00  0.00    +0.109 C 
ATOM     10  C   UNL     1      44.875  19.468  20.507  0.00  0.00    -0.195 A 
ATOM     11  C   UNL     1      43.517  19.194  20.616  0.00  0.00    +0.161 A 
ATOM     14  C   UNL     1      42.583  20.041  20.043  0.00  0.00    -0.061 A 
ATOM     15  C   UNL     1      43.006  21.170  19.357  0.00  0.00    +0.159 A 
ATOM     18  C   UNL     1      44.358  21.444  19.246  0.00  0.00    -0.039 A 
ATOM     19  C   UNL     1      45.297  20.593  19.819  0.00  0.00    +0.171 A 
ATOM     20  O   UNL     1      46.615  20.893  19.679  0.00  0.00    -0.291 OA
ATOM     21  C   UNL     1      47.542  20.252  20.555  0.00  0.00    +0.254 C 
ENDROOT
BRANCH  21  22
ATOM     22  C   UNL     1      48.949  20.500  20.075  0.00  0.00    -0.089 A 
ATOM     23  C   UNL     1      49.175  20.860  18.759  0.00  0.00    +0.070 A 
ATOM     24  C   UNL     1      50.463  21.093  18.314  0.00  0.00    +0.005 A 
ATOM     25  C   UNL     1      51.531  20.957  19.184  0.00  0.00    +0.093 A 
ATOM     28  C   UNL     1      51.305  20.589  20.508  0.00  0.00    +0.080 A 
ATOM     31  C   UNL     1      50.011  20.361  20.948  0.00  0.00    +0.023 A 
BRANCH  25  26
ATOM     26  O   UNL     1      52.799  21.181  18.747  0.00  0.00    -0.487 OA
ATOM     27  H   UNL     1      53.014  20.737  17.916  0.00  0.00    +0.390 HD
ENDBRANCH  25  26
BRANCH  28  29
ATOM     29  O   UNL     1      52.351  20.454  21.366  0.00  0.00    -0.485 OA
ATOM     30  H   UNL     1      52.201  19.805  22.068  0.00  0.00    +0.389 HD
ENDBRANCH  28  29
ENDBRANCH  21  22
BRANCH  11  12
ATOM     12  O   UNL     1      43.102  18.087  21.289  0.00  0.00    -0.491 OA
ATOM     13  H   UNL     1      42.605  17.460  20.746  0.00  0.00    +0.395 HD
ENDBRANCH  11  12
BRANCH  15  16
ATOM     16  O   UNL     1      42.093  22.005  18.794  0.00  0.00    -0.491 OA
ATOM     17  H   UNL     1      41.822  21.747  17.903  0.00  0.00    +0.397 HD
ENDBRANCH  15  16
BRANCH   8   7
ATOM      7  O   UNL     1      47.285  18.247  19.186  0.00  0.00    -0.326 OA
BRANCH   7   6
ATOM      6  C   UNL     1      47.966  17.105  18.971  0.00  0.00    +0.515 C 
ATOM     32  O   UNL     1      47.372  16.049  18.886  0.00  0.00    -0.499 OA
BRANCH   6   5
ATOM      3  C   UNL     1      51.397  17.415  17.473  0.00  0.00    +0.109 A 
ATOM      4  C   UNL     1      50.021  17.382  17.593  0.00  0.00    +0.011 A 
ATOM      5  C   UNL     1      49.436  17.137  18.837  0.00  0.00    -0.080 A 
ATOM     33  C   UNL     1      50.244  16.915  19.956  0.00  0.00    +0.047 A 
ATOM     34  C   UNL     1      51.620  16.944  19.829  0.00  0.00    +0.110 A 
ATOM     37  C   UNL     1      52.201  17.195  18.588  0.00  0.00    +0.088 A 
BRANCH   3   2
ATOM      1  C   UNL     1      51.914  19.005  15.781  0.00  0.00    +0.248 C 
ATOM      2  O   UNL     1      51.967  17.661  16.263  0.00  0.00    -0.300 OA
ENDBRANCH   3   2
BRANCH  34  35
ATOM     35  O   UNL     1      52.407  16.728  20.916  0.00  0.00    -0.476 OA
ATOM     36  H   UNL     1      53.127  16.102  20.763  0.00  0.00    +0.394 HD
ENDBRANCH  34  35
BRANCH  37  38
ATOM     38  O   UNL     1      53.553  17.222  18.466  0.00  0.00    -0.471 OA
ATOM     39  H   UNL     1      53.918  18.107  18.324  0.00  0.00    +0.391 HD
ENDBRANCH  37  38
ENDBRANCH   6   5
ENDBRANCH   7   6
ENDBRANCH   8   7
TORSDOF 11
ENDMDL
MODEL 8
REMARK VINA RESULT:      -6.3      2.206      7.347
REMARK  Name = ZINC14642643
REMARK  12 active torsions:
REMARK  status: ('A' for Active; 'I' for Inactive)
REMARK    1  A    between atoms: C1_1  and  O1_2
REMARK    2  A    between atoms: O1_2  and  C2_3
REMARK    3  A    between atoms: C4_5  and  C8_11
REMARK    4  A    between atoms: C6_7  and  O3_10
REMARK    5  A    between atoms: C7_8  and  O2_9
REMARK    6  A    between atoms: C8_11  and  O5_13
REMARK    7  A    between atoms: O5_13  and  C9_14
REMARK    8  A    between atoms: C12_18  and  O10_35
REMARK    9  A    between atoms: C14_20  and  O9_34
REMARK   10  A    between atoms: C17_24  and  C18_26
REMARK   11  A    between atoms: C21_29  and  O8_33
REMARK   12  A    between atoms: C22_30  and  O7_32
REMARK                            x       y       z     vdW  Elec       q    Type
REMARK                         _______ _______ _______ _____ _____    ______ ____
ROOT
ATOM      8  C   UNL     1      47.522  18.631  20.483  0.00  0.00    +0.175 C 
ATOM      9  C   UNL     1      46.146  18.357  21.094  0.00  0.00    +0.109 C 
ATOM     10  C   UNL     1      45.141  19.337  20.543  0.00  0.00    -0.195 A 
ATOM     11  C   UNL     1      43.787  19.045  20.664  0.00  0.00    +0.161 A 
ATOM     14  C   UNL     1      42.836  19.923  20.171  0.00  0.00    -0.061 A 
ATOM     15  C   UNL     1      43.236  21.100  19.556  0.00  0.00    +0.159 A 
ATOM     18  C   UNL     1      44.584  21.391  19.435  0.00  0.00    -0.039 A 
ATOM     19  C   UNL     1      45.541  20.509  19.926  0.00  0.00    +0.171 A 
ATOM     20  O   UNL     1      46.853  20.828  19.777  0.00  0.00    -0.291 OA
ATOM     21  C   UNL     1      47.804  20.135  20.586  0.00  0.00    +0.254 C 
ENDROOT
BRANCH  21  22
ATOM     22  C   UNL     1      49.198  20.426  20.093  0.00  0.00    -0.089 A 
ATOM     23  C   UNL     1      49.397  20.826  18.784  0.00  0.00    +0.070 A 
ATOM     24  C   UNL     1      50.673  21.099  18.328  0.00  0.00    +0.005 A 
ATOM     25  C   UNL     1      51.757  20.962  19.179  0.00  0.00    +0.093 A 
ATOM     28  C   UNL     1      51.558  20.554  20.495  0.00  0.00    +0.080 A 
ATOM     31  C   UNL     1      50.276  20.286  20.947  0.00  0.00    +0.023 A 
BRANCH  25  26
ATOM     26  O   UNL     1      53.013  21.225  18.731  0.00  0.00    -0.487 OA
ATOM     27  H   UNL     1      53.041  21.638  17.857  0.00  0.00    +0.390 HD
ENDBRANCH  25  26
BRANCH  28  29
ATOM     29  O   UNL     1      52.619  20.418  21.335  0.00  0.00    -0.485 OA
ATOM     30  H   UNL     1      52.378  20.139  22.229  0.00  0.00    +0.389 HD
ENDBRANCH  28  29
ENDBRANCH  21  22
BRANCH  11  12
ATOM     12  O   UNL     1      43.395  17.892  21.267  0.00  0.00    -0.491 OA
ATOM     13  H   UNL     1      42.866  18.026  22.066  0.00  0.00    +0.395 HD
ENDBRANCH  11  12
BRANCH  15  16
ATOM     16  O   UNL     1      42.306  21.965  19.072  0.00  0.00    -0.491 OA
ATOM     17  H   UNL     1      41.787  21.613  18.337  0.00  0.00    +0.397 HD
ENDBRANCH  15  16
BRANCH   8   7
ATOM      7  O   UNL     1      47.528  18.227  19.088  0.00  0.00    -0.326 OA
BRANCH   7   6
ATOM      6  C   UNL     1      48.219  17.113  18.778  0.00  0.00    +0.515 C 
ATOM     32  O   UNL     1      49.426  17.087  18.920  0.00  0.00    -0.499 OA
BRANCH   6   5
ATOM      3  C   UNL     1      45.980  14.102  18.611  0.00  0.00    +0.109 A 
ATOM      4  C   UNL     1      46.645  15.212  19.097  0.00  0.00    +0.011 A 
ATOM      5  C   UNL     1      47.511  15.925  18.264  0.00  0.00    -0.080 A 
ATOM     33  C   UNL     1      47.712  15.508  16.946  0.00  0.00    +0.047 A 
ATOM     34  C   UNL     1      47.048  14.394  16.467  0.00  0.00    +0.110 A 
ATOM     37  C   UNL     1      46.181  13.688  17.297  0.00  0.00    +0.088 A 
BRANCH   3   2
ATOM      1  C   UNL     1      45.298  13.576  20.828  0.00  0.00    +0.248 C 
ATOM      2  O   UNL     1      45.131  13.412  19.418  0.00  0.00    -0.300 OA
ENDBRANCH   3   2
BRANCH  34  35
ATOM     35  O   UNL     1      47.243  13.986  15.184  0.00  0.00    -0.476 OA
ATOM     36  H   UNL     1      46.459  14.058  14.624  0.00  0.00    +0.394 HD
ENDBRANCH  34  35
BRANCH  37  38
ATOM     38  O   UNL     1      45.530  12.593  16.824  0.00  0.00    -0.471 OA
ATOM     39  H   UNL     1      45.314  12.639  15.882  0.00  0.00    +0.391 HD
ENDBRANCH  37  38
ENDBRANCH   6   5
ENDBRANCH   7   6
ENDBRANCH   8   7
TORSDOF 11
ENDMDL
MODEL 9
REMARK VINA RESULT:      -6.2      2.170      5.998
REMARK  Name = ZINC14642643
REMARK  12 active torsions:
REMARK  status: ('A' for Active; 'I' for Inactive)
REMARK    1  A    between atoms: C1_1  and  O1_2
REMARK    2  A    between atoms: O1_2  and  C2_3
REMARK    3  A    between atoms: C4_5  and  C8_11
REMARK    4  A    between atoms: C6_7  and  O3_10
REMARK    5  A    between atoms: C7_8  and  O2_9
REMARK    6  A    between atoms: C8_11  and  O5_13
REMARK    7  A    between atoms: O5_13  and  C9_14
REMARK    8  A    between atoms: C12_18  and  O10_35
REMARK    9  A    between atoms: C14_20  and  O9_34
REMARK   10  A    between atoms: C17_24  and  C18_26
REMARK   11  A    between atoms: C21_29  and  O8_33
REMARK   12  A    between atoms: C22_30  and  O7_32
REMARK                            x       y       z     vdW  Elec       q    Type
REMARK                         _______ _______ _______ _____ _____    ______ ____
ROOT
ATOM      8  C   UNL     1      46.915  18.239  20.278  0.00  0.00    +0.175 C 
ATOM      9  C   UNL     1      48.075  17.247  20.391  0.00  0.00    +0.109 C 
ATOM     10  C   UNL     1      48.138  16.395  19.149  0.00  0.00    -0.195 A 
ATOM     11  C   UNL     1      49.311  15.703  18.871  0.00  0.00    +0.161 A 
ATOM     14  C   UNL     1      49.403  14.909  17.740  0.00  0.00    -0.061 A 
ATOM     15  C   UNL     1      48.320  14.803  16.881  0.00  0.00    +0.159 A 
ATOM     18  C   UNL     1      47.152  15.493  17.156  0.00  0.00    -0.039 A 
ATOM     19  C   UNL     1      47.058  16.293  18.290  0.00  0.00    +0.171 A 
ATOM     20  O   UNL     1      45.897  16.961  18.517  0.00  0.00    -0.291 OA
ATOM     21  C   UNL     1      45.666  17.469  19.831  0.00  0.00    +0.254 C 
ENDROOT
BRANCH  21  22
ATOM     22  C   UNL     1      44.477  18.395  19.816  0.00  0.00    -0.089 A 
ATOM     23  C   UNL     1      44.299  19.271  18.761  0.00  0.00    +0.070 A 
ATOM     24  C   UNL     1      43.207  20.119  18.738  0.00  0.00    +0.005 A 
ATOM     25  C   UNL     1      42.294  20.099  19.780  0.00  0.00    +0.093 A 
ATOM     28  C   UNL     1      42.475  19.222  20.845  0.00  0.00    +0.080 A 
ATOM     31  C   UNL     1      43.570  18.372  20.859  0.00  0.00    +0.023 A 
BRANCH  25  26
ATOM     26  O   UNL     1      41.222  20.936  19.763  0.00  0.00    -0.487 OA
ATOM     27  H   UNL     1      41.211  21.547  19.014  0.00  0.00    +0.390 HD
ENDBRANCH  25  26
BRANCH  28  29
ATOM     29  O   UNL     1      41.582  19.199  21.870  0.00  0.00    -0.485 OA
ATOM     30  H   UNL     1      41.787  18.547  22.555  0.00  0.00    +0.389 HD
ENDBRANCH  28  29
ENDBRANCH  21  22
BRANCH  11  12
ATOM     12  O   UNL     1      50.373  15.806  19.714  0.00  0.00    -0.491 OA
ATOM     13  H   UNL     1      50.321  16.556  20.323  0.00  0.00    +0.395 HD
ENDBRANCH  11  12
BRANCH  15  16
ATOM     16  O   UNL     1      48.406  14.024  15.770  0.00  0.00    -0.491 OA
ATOM     17  H   UNL     1      48.828  14.459  15.018  0.00  0.00    +0.397 HD
ENDBRANCH  15  16
BRANCH   8   7
ATOM      7  O   UNL     1      47.236  19.260  19.298  0.00  0.00    -0.326 OA
BRANCH   7   6
ATOM      6  C   UNL     1      47.763  20.410  19.764  0.00  0.00    +0.515 C 
ATOM     32  O   UNL     1      47.051  21.224  20.318  0.00  0.00    -0.499 OA
BRANCH   6   5
ATOM      3  C   UNL     1      51.392  20.955  20.565  0.00  0.00    +0.109 A 
ATOM      4  C   UNL     1      50.042  20.707  20.721  0.00  0.00    +0.011 A 
ATOM      5  C   UNL     1      49.205  20.679  19.603  0.00  0.00    -0.080 A 
ATOM     33  C   UNL     1      49.733  20.914  18.330  0.00  0.00    +0.047 A 
ATOM     34  C   UNL     1      51.084  21.167  18.181  0.00  0.00    +0.110 A 
ATOM     37  C   UNL     1      51.917  21.188  19.296  0.00  0.00    +0.088 A 
BRANCH   3   2
ATOM      1  C   UNL     1      52.672  19.715  22.139  0.00  0.00    +0.248 C 
ATOM      2  O   UNL     1      52.209  20.975  21.652  0.00  0.00    -0.300 OA
ENDBRANCH   3   2
BRANCH  34  35
ATOM     35  O   UNL     1      51.599  21.396  16.943  0.00  0.00    -0.476 OA
ATOM     36  H   UNL     1      51.698  20.600  16.404  0.00  0.00    +0.394 HD
ENDBRANCH  34  35
BRANCH  37  38
ATOM     38  O   UNL     1      53.244  21.438  19.147  0.00  0.00    -0.471 OA
ATOM     39  H   UNL     1      53.632  21.951  19.869  0.00  0.00    +0.391 HD
ENDBRANCH  37  38
ENDBRANCH   6   5
ENDBRANCH   7   6
ENDBRANCH   8   7
TORSDOF 11
ENDMDL
