MODEL 1
REMARK VINA RESULT:      -5.8      0.000      0.000
REMARK  Name = ZINC95486314
REMARK  6 active torsions:
REMARK  status: ('A' for Active; 'I' for Inactive)
REMARK    1  A    between atoms: C1_1  and  C2_2
REMARK    2  A    between atoms: C5_5  and  O2_27
REMARK    3  A    between atoms: C6_7  and  C19_24
REMARK    4  A    between atoms: C6_7  and  C20_25
REMARK    5  A    between atoms: C16_21  and  C18_23
REMARK    6  A    between atoms: C20_25  and  O1_26
REMARK                            x       y       z     vdW  Elec       q    Type
REMARK                         _______ _______ _______ _____ _____    ______ ____
ROOT
ATOM      1  C   UNL     1      56.652  34.262   3.412  0.00  0.00    +0.026 C 
ATOM      2  C   UNL     1      56.750  33.179   4.487  0.00  0.00    -0.047 C 
ATOM      3  C   UNL     1      58.086  33.316   5.221  0.00  0.00    +0.024 C 
ATOM      4  C   UNL     1      59.238  33.161   4.228  0.00  0.00    -0.021 C 
ATOM      5  C   UNL     1      59.160  31.780   3.573  0.00  0.00    +0.177 C 
ATOM      8  C   UNL     1      57.831  31.650   2.828  0.00  0.00    -0.040 C 
ATOM     12  C   UNL     1      57.749  30.272   2.168  0.00  0.00    +0.037 C 
ATOM     13  C   UNL     1      55.621  33.374   5.507  0.00  0.00    +0.021 C 
ATOM     14  C   UNL     1      55.690  34.840   5.959  0.00  0.00    +0.045 C 
ATOM     15  C   UNL     1      54.323  35.358   6.409  0.00  0.00    -0.017 C 
ATOM     16  C   UNL     1      53.316  35.315   5.221  0.00  0.00    -0.079 C 
ATOM     17  C   UNL     1      53.742  34.306   4.058  0.00  0.00    +0.059 C 
ATOM     18  C   UNL     1      53.098  34.463   6.498  0.00  0.00    -0.114 C 
ATOM     19  C   UNL     1      51.990  34.816   7.493  0.00  0.00    +0.067 C 
ATOM     20  C   UNL     1      53.228  32.997   6.024  0.00  0.00    +0.051 C 
ATOM     21  C   UNL     1      54.254  33.094   4.858  0.00  0.00    -0.054 C 
ATOM     22  C   UNL     1      54.194  31.811   4.059  0.00  0.00    +0.023 C 
ATOM     23  C   UNL     1      55.341  31.726   3.053  0.00  0.00    +0.011 C 
ATOM     24  C   UNL     1      56.663  31.806   3.828  0.00  0.00    +0.033 C 
ENDROOT
BRANCH   5   6
ATOM      6  O   UNL     1      59.244  30.769   4.580  0.00  0.00    -0.561 OA
ATOM      7  H   UNL     1      59.725  29.977   4.302  0.00  0.00    +0.374 HD
ENDBRANCH   5   6
BRANCH   8   9
ATOM      9  C   UNL     1      57.741  32.735   1.752  0.00  0.00    +0.184 C 
BRANCH   9  10
ATOM     10  O   UNL     1      58.722  32.488   0.743  0.00  0.00    -0.576 OA
ATOM     11  H   UNL     1      58.903  31.551   0.591  0.00  0.00    +0.377 HD
ENDBRANCH   9  10
ENDBRANCH   8   9
TORSDOF 3
ENDMDL
MODEL 2
REMARK VINA RESULT:      -5.7     21.205     23.539
REMARK  Name = ZINC95486314
REMARK  6 active torsions:
REMARK  status: ('A' for Active; 'I' for Inactive)
REMARK    1  A    between atoms: C1_1  and  C2_2
REMARK    2  A    between atoms: C5_5  and  O2_27
REMARK    3  A    between atoms: C6_7  and  C19_24
REMARK    4  A    between atoms: C6_7  and  C20_25
REMARK    5  A    between atoms: C16_21  and  C18_23
REMARK    6  A    between atoms: C20_25  and  O1_26
REMARK                            x       y       z     vdW  Elec       q    Type
REMARK                         _______ _______ _______ _____ _____    ______ ____
ROOT
ATOM      1  C   UNL     1      45.975  20.033  20.976  0.00  0.00    +0.026 C 
ATOM      2  C   UNL     1      45.548  20.071  19.508  0.00  0.00    -0.047 C 
ATOM      3  C   UNL     1      45.239  21.516  19.109  0.00  0.00    +0.024 C 
ATOM      4  C   UNL     1      44.112  22.062  19.987  0.00  0.00    -0.021 C 
ATOM      5  C   UNL     1      42.859  21.205  19.795  0.00  0.00    +0.177 C 
ATOM      8  C   UNL     1      43.166  19.764  20.207  0.00  0.00    -0.040 C 
ATOM     12  C   UNL     1      41.915  18.903  20.020  0.00  0.00    +0.037 C 
ATOM     13  C   UNL     1      46.703  19.570  18.632  0.00  0.00    +0.021 C 
ATOM     14  C   UNL     1      47.943  20.380  19.039  0.00  0.00    +0.045 C 
ATOM     15  C   UNL     1      49.235  19.601  18.787  0.00  0.00    -0.017 C 
ATOM     16  C   UNL     1      49.258  18.306  19.652  0.00  0.00    -0.079 C 
ATOM     17  C   UNL     1      47.810  17.837  20.140  0.00  0.00    +0.059 C 
ATOM     18  C   UNL     1      49.252  18.243  18.103  0.00  0.00    -0.114 C 
ATOM     19  C   UNL     1      50.504  17.815  17.335  0.00  0.00    +0.067 C 
ATOM     20  C   UNL     1      47.899  17.593  17.736  0.00  0.00    +0.051 C 
ATOM     21  C   UNL     1      46.957  18.072  18.880  0.00  0.00    -0.054 C 
ATOM     22  C   UNL     1      45.710  17.217  18.862  0.00  0.00    +0.023 C 
ATOM     23  C   UNL     1      44.632  17.782  19.787  0.00  0.00    +0.011 C 
ATOM     24  C   UNL     1      44.304  19.207  19.322  0.00  0.00    +0.033 C 
ENDROOT
BRANCH   5   6
ATOM      6  O   UNL     1      42.467  21.235  18.421  0.00  0.00    -0.561 OA
ATOM      7  H   UNL     1      42.590  20.396  17.957  0.00  0.00    +0.374 HD
ENDBRANCH   5   6
BRANCH   8   9
ATOM      9  C   UNL     1      43.589  19.734  21.677  0.00  0.00    +0.184 C 
BRANCH   9  10
ATOM     10  O   UNL     1      42.428  19.651  22.505  0.00  0.00    -0.576 OA
ATOM     11  H   UNL     1      41.896  20.458  22.518  0.00  0.00    +0.377 HD
ENDBRANCH   9  10
ENDBRANCH   8   9
TORSDOF 3
ENDMDL
MODEL 3
REMARK VINA RESULT:      -5.6     20.095     21.964
REMARK  Name = ZINC95486314
REMARK  6 active torsions:
REMARK  status: ('A' for Active; 'I' for Inactive)
REMARK    1  A    between atoms: C1_1  and  C2_2
REMARK    2  A    between atoms: C5_5  and  O2_27
REMARK    3  A    between atoms: C6_7  and  C19_24
REMARK    4  A    between atoms: C6_7  and  C20_25
REMARK    5  A    between atoms: C16_21  and  C18_23
REMARK    6  A    between atoms: C20_25  and  O1_26
REMARK                            x       y       z     vdW  Elec       q    Type
REMARK                         _______ _______ _______ _____ _____    ______ ____
ROOT
ATOM      1  C   UNL     1      49.556  18.064  17.004  0.00  0.00    +0.026 C 
ATOM      2  C   UNL     1      49.555  17.646  18.475  0.00  0.00    -0.047 C 
ATOM      3  C   UNL     1      50.163  16.246  18.602  0.00  0.00    +0.024 C 
ATOM      4  C   UNL     1      49.340  15.251  17.783  0.00  0.00    -0.021 C 
ATOM      5  C   UNL     1      47.903  15.229  18.309  0.00  0.00    +0.177 C 
ATOM      8  C   UNL     1      47.293  16.624  18.168  0.00  0.00    -0.040 C 
ATOM     12  C   UNL     1      45.855  16.606  18.689  0.00  0.00    +0.037 C 
ATOM     13  C   UNL     1      50.425  18.620  19.279  0.00  0.00    +0.021 C 
ATOM     14  C   UNL     1      51.778  18.695  18.556  0.00  0.00    +0.045 C 
ATOM     15  C   UNL     1      52.473  20.037  18.795  0.00  0.00    -0.017 C 
ATOM     16  C   UNL     1      51.608  21.198  18.221  0.00  0.00    -0.079 C 
ATOM     17  C   UNL     1      50.068  20.815  18.033  0.00  0.00    +0.059 C 
ATOM     18  C   UNL     1      51.915  21.091  19.737  0.00  0.00    -0.114 C 
ATOM     19  C   UNL     1      52.879  22.071  20.409  0.00  0.00    +0.067 C 
ATOM     20  C   UNL     1      50.545  20.825  20.403  0.00  0.00    +0.051 C 
ATOM     21  C   UNL     1      49.778  20.015  19.316  0.00  0.00    -0.054 C 
ATOM     22  C   UNL     1      48.308  20.012  19.671  0.00  0.00    +0.023 C 
ATOM     23  C   UNL     1      47.525  19.034  18.797  0.00  0.00    +0.011 C 
ATOM     24  C   UNL     1      48.121  17.634  18.994  0.00  0.00    +0.033 C 
ENDROOT
BRANCH   5   6
ATOM      6  O   UNL     1      47.905  14.845  19.685  0.00  0.00    -0.561 OA
ATOM      7  H   UNL     1      47.060  14.492  19.996  0.00  0.00    +0.374 HD
ENDBRANCH   5   6
BRANCH   8   9
ATOM      9  C   UNL     1      47.294  17.035  16.694  0.00  0.00    +0.184 C 
BRANCH   9  10
ATOM     10  O   UNL     1      46.328  16.259  15.982  0.00  0.00    -0.576 OA
ATOM     11  H   UNL     1      46.694  15.763  15.237  0.00  0.00    +0.377 HD
ENDBRANCH   9  10
ENDBRANCH   8   9
TORSDOF 3
ENDMDL
MODEL 4
REMARK VINA RESULT:      -5.6     20.576     23.003
REMARK  Name = ZINC95486314
REMARK  6 active torsions:
REMARK  status: ('A' for Active; 'I' for Inactive)
REMARK    1  A    between atoms: C1_1  and  C2_2
REMARK    2  A    between atoms: C5_5  and  O2_27
REMARK    3  A    between atoms: C6_7  and  C19_24
REMARK    4  A    between atoms: C6_7  and  C20_25
REMARK    5  A    between atoms: C16_21  and  C18_23
REMARK    6  A    between atoms: C20_25  and  O1_26
REMARK                            x       y       z     vdW  Elec       q    Type
REMARK                         _______ _______ _______ _____ _____    ______ ____
ROOT
ATOM      1  C   UNL     1      46.979  20.738  20.919  0.00  0.00    +0.026 C 
ATOM      2  C   UNL     1      46.577  20.221  19.537  0.00  0.00    -0.047 C 
ATOM      3  C   UNL     1      45.903  21.350  18.753  0.00  0.00    +0.024 C 
ATOM      4  C   UNL     1      44.660  21.829  19.504  0.00  0.00    -0.021 C 
ATOM      5  C   UNL     1      43.680  20.663  19.658  0.00  0.00    +0.177 C 
ATOM      8  C   UNL     1      44.350  19.543  20.454  0.00  0.00    -0.040 C 
ATOM     12  C   UNL     1      43.373  18.377  20.614  0.00  0.00    +0.037 C 
ATOM     13  C   UNL     1      47.834  19.791  18.772  0.00  0.00    +0.021 C 
ATOM     14  C   UNL     1      48.811  20.974  18.838  0.00  0.00    +0.045 C 
ATOM     15  C   UNL     1      50.266  20.513  18.740  0.00  0.00    -0.017 C 
ATOM     16  C   UNL     1      50.618  19.590  19.945  0.00  0.00    -0.079 C 
ATOM     17  C   UNL     1      49.339  18.937  20.645  0.00  0.00    +0.059 C 
ATOM     18  C   UNL     1      50.650  19.063  18.487  0.00  0.00    -0.114 C 
ATOM     19  C   UNL     1      51.980  18.757  17.796  0.00  0.00    +0.067 C 
ATOM     20  C   UNL     1      49.520  18.010  18.420  0.00  0.00    +0.051 C 
ATOM     21  C   UNL     1      48.471  18.555  19.432  0.00  0.00    -0.054 C 
ATOM     22  C   UNL     1      47.493  17.446  19.752  0.00  0.00    +0.023 C 
ATOM     23  C   UNL     1      46.293  17.969  20.539  0.00  0.00    +0.011 C 
ATOM     24  C   UNL     1      45.607  19.054  19.698  0.00  0.00    +0.033 C 
ENDROOT
BRANCH   5   6
ATOM      6  O   UNL     1      43.312  20.177  18.366  0.00  0.00    -0.561 OA
ATOM      7  H   UNL     1      42.360  20.046  18.251  0.00  0.00    +0.374 HD
ENDBRANCH   5   6
BRANCH   8   9
ATOM      9  C   UNL     1      44.747  20.066  21.837  0.00  0.00    +0.184 C 
BRANCH   9  10
ATOM     10  O   UNL     1      43.592  20.581  22.501  0.00  0.00    -0.576 OA
ATOM     11  H   UNL     1      43.645  21.523  22.710  0.00  0.00    +0.377 HD
ENDBRANCH   9  10
ENDBRANCH   8   9
TORSDOF 3
ENDMDL
MODEL 5
REMARK VINA RESULT:      -5.4     22.554     24.633
REMARK  Name = ZINC95486314
REMARK  6 active torsions:
REMARK  status: ('A' for Active; 'I' for Inactive)
REMARK    1  A    between atoms: C1_1  and  C2_2
REMARK    2  A    between atoms: C5_5  and  O2_27
REMARK    3  A    between atoms: C6_7  and  C19_24
REMARK    4  A    between atoms: C6_7  and  C20_25
REMARK    5  A    between atoms: C16_21  and  C18_23
REMARK    6  A    between atoms: C20_25  and  O1_26
REMARK                            x       y       z     vdW  Elec       q    Type
REMARK                         _______ _______ _______ _____ _____    ______ ____
ROOT
ATOM      1  C   UNL     1      46.255  19.090  20.248  0.00  0.00    +0.026 C 
ATOM      2  C   UNL     1      45.198  18.527  19.297  0.00  0.00    -0.047 C 
ATOM      3  C   UNL     1      44.715  19.640  18.363  0.00  0.00    +0.024 C 
ATOM      4  C   UNL     1      44.112  20.778  19.187  0.00  0.00    -0.021 C 
ATOM      5  C   UNL     1      42.927  20.246  19.995  0.00  0.00    +0.177 C 
ATOM      8  C   UNL     1      43.413  19.144  20.938  0.00  0.00    -0.040 C 
ATOM     12  C   UNL     1      42.232  18.611  21.751  0.00  0.00    +0.037 C 
ATOM     13  C   UNL     1      45.826  17.421  18.439  0.00  0.00    +0.021 C 
ATOM     14  C   UNL     1      47.100  18.018  17.823  0.00  0.00    +0.045 C 
ATOM     15  C   UNL     1      48.142  16.940  17.524  0.00  0.00    -0.017 C 
ATOM     16  C   UNL     1      48.584  16.241  18.845  0.00  0.00    -0.079 C 
ATOM     17  C   UNL     1      47.533  16.405  20.037  0.00  0.00    +0.059 C 
ATOM     18  C   UNL     1      47.865  15.457  17.717  0.00  0.00    -0.114 C 
ATOM     19  C   UNL     1      48.627  14.442  16.863  0.00  0.00    +0.067 C 
ATOM     20  C   UNL     1      46.506  15.042  18.325  0.00  0.00    +0.051 C 
ATOM     21  C   UNL     1      46.191  16.206  19.310  0.00  0.00    -0.054 C 
ATOM     22  C   UNL     1      45.091  15.757  20.246  0.00  0.00    +0.023 C 
ATOM     23  C   UNL     1      44.553  16.922  21.075  0.00  0.00    +0.011 C 
ATOM     24  C   UNL     1      44.023  17.990  20.110  0.00  0.00    +0.033 C 
ENDROOT
BRANCH   5   6
ATOM      6  O   UNL     1      41.943  19.713  19.105  0.00  0.00    -0.561 OA
ATOM      7  H   UNL     1      41.333  19.089  19.521  0.00  0.00    +0.374 HD
ENDBRANCH   5   6
BRANCH   8   9
ATOM      9  C   UNL     1      44.468  19.715  21.888  0.00  0.00    +0.184 C 
BRANCH   9  10
ATOM     10  O   UNL     1      43.962  20.900  22.505  0.00  0.00    -0.576 OA
ATOM     11  H   UNL     1      44.255  21.024  23.418  0.00  0.00    +0.377 HD
ENDBRANCH   9  10
ENDBRANCH   8   9
TORSDOF 3
ENDMDL
MODEL 6
REMARK VINA RESULT:      -5.4     20.448     22.903
REMARK  Name = ZINC95486314
REMARK  6 active torsions:
REMARK  status: ('A' for Active; 'I' for Inactive)
REMARK    1  A    between atoms: C1_1  and  C2_2
REMARK    2  A    between atoms: C5_5  and  O2_27
REMARK    3  A    between atoms: C6_7  and  C19_24
REMARK    4  A    between atoms: C6_7  and  C20_25
REMARK    5  A    between atoms: C16_21  and  C18_23
REMARK    6  A    between atoms: C20_25  and  O1_26
REMARK                            x       y       z     vdW  Elec       q    Type
REMARK                         _______ _______ _______ _____ _____    ______ ____
ROOT
ATOM      1  C   UNL     1      46.515  20.771  18.752  0.00  0.00    +0.026 C 
ATOM      2  C   UNL     1      46.625  19.813  19.938  0.00  0.00    -0.047 C 
ATOM      3  C   UNL     1      45.566  18.716  19.802  0.00  0.00    +0.024 C 
ATOM      4  C   UNL     1      44.172  19.346  19.776  0.00  0.00    -0.021 C 
ATOM      5  C   UNL     1      43.940  20.115  21.078  0.00  0.00    +0.177 C 
ATOM      8  C   UNL     1      44.990  21.219  21.206  0.00  0.00    -0.040 C 
ATOM     12  C   UNL     1      44.759  21.994  22.505  0.00  0.00    +0.037 C 
ATOM     13  C   UNL     1      48.007  19.148  19.926  0.00  0.00    +0.021 C 
ATOM     14  C   UNL     1      48.199  18.567  18.517  0.00  0.00    +0.045 C 
ATOM     15  C   UNL     1      49.679  18.485  18.137  0.00  0.00    -0.017 C 
ATOM     16  C   UNL     1      50.305  19.912  18.109  0.00  0.00    -0.079 C 
ATOM     17  C   UNL     1      49.481  20.988  18.957  0.00  0.00    +0.059 C 
ATOM     18  C   UNL     1      50.794  18.832  19.110  0.00  0.00    -0.114 C 
ATOM     19  C   UNL     1      52.163  18.171  18.936  0.00  0.00    +0.067 C 
ATOM     20  C   UNL     1      50.406  19.376  20.503  0.00  0.00    +0.051 C 
ATOM     21  C   UNL     1      49.106  20.185  20.216  0.00  0.00    -0.054 C 
ATOM     22  C   UNL     1      48.825  21.077  21.404  0.00  0.00    +0.023 C 
ATOM     23  C   UNL     1      47.439  21.714  21.308  0.00  0.00    +0.011 C 
ATOM     24  C   UNL     1      46.400  20.587  21.233  0.00  0.00    +0.033 C 
ENDROOT
BRANCH   5   6
ATOM      6  O   UNL     1      44.050  19.219  22.187  0.00  0.00    -0.561 OA
ATOM      7  H   UNL     1      44.856  19.337  22.708  0.00  0.00    +0.374 HD
ENDBRANCH   5   6
BRANCH   8   9
ATOM      9  C   UNL     1      44.872  22.175  20.017  0.00  0.00    +0.184 C 
BRANCH   9  10
ATOM     10  O   UNL     1      43.787  23.077  20.236  0.00  0.00    -0.576 OA
ATOM     11  H   UNL     1      43.726  23.406  21.142  0.00  0.00    +0.377 HD
ENDBRANCH   9  10
ENDBRANCH   8   9
TORSDOF 3
ENDMDL
MODEL 7
REMARK VINA RESULT:      -5.4     19.681     21.689
REMARK  Name = ZINC95486314
REMARK  6 active torsions:
REMARK  status: ('A' for Active; 'I' for Inactive)
REMARK    1  A    between atoms: C1_1  and  C2_2
REMARK    2  A    between atoms: C5_5  and  O2_27
REMARK    3  A    between atoms: C6_7  and  C19_24
REMARK    4  A    between atoms: C6_7  and  C20_25
REMARK    5  A    between atoms: C16_21  and  C18_23
REMARK    6  A    between atoms: C20_25  and  O1_26
REMARK                            x       y       z     vdW  Elec       q    Type
REMARK                         _______ _______ _______ _____ _____    ______ ____
ROOT
ATOM      1  C   UNL     1      49.328  19.022  19.861  0.00  0.00    +0.026 C 
ATOM      2  C   UNL     1      49.518  20.536  19.770  0.00  0.00    -0.047 C 
ATOM      3  C   UNL     1      50.261  20.875  18.475  0.00  0.00    +0.024 C 
ATOM      4  C   UNL     1      51.626  20.184  18.469  0.00  0.00    -0.021 C 
ATOM      5  C   UNL     1      52.445  20.671  19.666  0.00  0.00    +0.177 C 
ATOM      8  C   UNL     1      51.708  20.319  20.959  0.00  0.00    -0.040 C 
ATOM     12  C   UNL     1      52.526  20.801  22.159  0.00  0.00    +0.037 C 
ATOM     13  C   UNL     1      48.145  21.217  19.725  0.00  0.00    +0.021 C 
ATOM     14  C   UNL     1      47.352  20.525  18.606  0.00  0.00    +0.045 C 
ATOM     15  C   UNL     1      45.844  20.590  18.857  0.00  0.00    -0.017 C 
ATOM     16  C   UNL     1      45.487  19.836  20.174  0.00  0.00    -0.079 C 
ATOM     17  C   UNL     1      46.727  19.665  21.168  0.00  0.00    +0.059 C 
ATOM     18  C   UNL     1      45.241  21.360  20.022  0.00  0.00    -0.114 C 
ATOM     19  C   UNL     1      43.820  21.911  19.891  0.00  0.00    +0.067 C 
ATOM     20  C   UNL     1      46.202  22.021  21.036  0.00  0.00    +0.051 C 
ATOM     21  C   UNL     1      47.411  21.040  21.066  0.00  0.00    -0.054 C 
ATOM     22  C   UNL     1      48.253  21.355  22.283  0.00  0.00    +0.023 C 
ATOM     23  C   UNL     1      49.585  20.607  22.249  0.00  0.00    +0.011 C 
ATOM     24  C   UNL     1      50.329  21.016  20.970  0.00  0.00    +0.033 C 
ENDROOT
BRANCH   5   6
ATOM      6  O   UNL     1      52.615  22.087  19.582  0.00  0.00    -0.561 OA
ATOM      7  H   UNL     1      53.360  22.425  20.098  0.00  0.00    +0.374 HD
ENDBRANCH   5   6
BRANCH   8   9
ATOM      9  C   UNL     1      51.525  18.802  21.044  0.00  0.00    +0.184 C 
BRANCH   9  10
ATOM     10  O   UNL     1      52.770  18.190  21.384  0.00  0.00    -0.576 OA
ATOM     11  H   UNL     1      52.687  17.437  21.984  0.00  0.00    +0.377 HD
ENDBRANCH   9  10
ENDBRANCH   8   9
TORSDOF 3
ENDMDL
MODEL 8
REMARK VINA RESULT:      -5.3     21.108     22.953
REMARK  Name = ZINC95486314
REMARK  6 active torsions:
REMARK  status: ('A' for Active; 'I' for Inactive)
REMARK    1  A    between atoms: C1_1  and  C2_2
REMARK    2  A    between atoms: C5_5  and  O2_27
REMARK    3  A    between atoms: C6_7  and  C19_24
REMARK    4  A    between atoms: C6_7  and  C20_25
REMARK    5  A    between atoms: C16_21  and  C18_23
REMARK    6  A    between atoms: C20_25  and  O1_26
REMARK                            x       y       z     vdW  Elec       q    Type
REMARK                         _______ _______ _______ _____ _____    ______ ____
ROOT
ATOM      1  C   UNL     1      46.306  20.072  21.662  0.00  0.00    +0.026 C 
ATOM      2  C   UNL     1      46.517  20.933  20.416  0.00  0.00    -0.047 C 
ATOM      3  C   UNL     1      46.300  22.405  20.777  0.00  0.00    +0.024 C 
ATOM      4  C   UNL     1      44.877  22.602  21.304  0.00  0.00    -0.021 C 
ATOM      5  C   UNL     1      43.876  22.192  20.222  0.00  0.00    +0.177 C 
ATOM      8  C   UNL     1      44.085  20.718  19.873  0.00  0.00    -0.040 C 
ATOM     12  C   UNL     1      43.083  20.302  18.794  0.00  0.00    +0.037 C 
ATOM     13  C   UNL     1      47.961  20.769  19.926  0.00  0.00    +0.021 C 
ATOM     14  C   UNL     1      48.866  21.030  21.139  0.00  0.00    +0.045 C 
ATOM     15  C   UNL     1      50.198  20.288  21.021  0.00  0.00    -0.017 C 
ATOM     16  C   UNL     1      49.954  18.750  20.984  0.00  0.00    -0.079 C 
ATOM     17  C   UNL     1      48.469  18.349  20.548  0.00  0.00    +0.059 C 
ATOM     18  C   UNL     1      50.587  19.497  19.782  0.00  0.00    -0.114 C 
ATOM     19  C   UNL     1      52.070  19.322  19.448  0.00  0.00    +0.067 C 
ATOM     20  C   UNL     1      49.551  19.369  18.642  0.00  0.00    +0.051 C 
ATOM     21  C   UNL     1      48.193  19.341  19.403  0.00  0.00    -0.054 C 
ATOM     22  C   UNL     1      47.124  18.842  18.456  0.00  0.00    +0.023 C 
ATOM     23  C   UNL     1      45.727  19.022  19.047  0.00  0.00    +0.011 C 
ATOM     24  C   UNL     1      45.521  20.514  19.340  0.00  0.00    +0.033 C 
ENDROOT
BRANCH   5   6
ATOM      6  O   UNL     1      44.079  22.993  19.055  0.00  0.00    -0.561 OA
ATOM      7  H   UNL     1      44.911  23.486  19.057  0.00  0.00    +0.374 HD
ENDBRANCH   5   6
BRANCH   8   9
ATOM      9  C   UNL     1      43.869  19.863  21.124  0.00  0.00    +0.184 C 
BRANCH   9  10
ATOM     10  O   UNL     1      42.469  19.717  21.366  0.00  0.00    -0.576 OA
ATOM     11  H   UNL     1      41.963  19.431  20.594  0.00  0.00    +0.377 HD
ENDBRANCH   9  10
ENDBRANCH   8   9
TORSDOF 3
ENDMDL
MODEL 9
REMARK VINA RESULT:      -5.2     20.655     22.781
REMARK  Name = ZINC95486314
REMARK  6 active torsions:
REMARK  status: ('A' for Active; 'I' for Inactive)
REMARK    1  A    between atoms: C1_1  and  C2_2
REMARK    2  A    between atoms: C5_5  and  O2_27
REMARK    3  A    between atoms: C6_7  and  C19_24
REMARK    4  A    between atoms: C6_7  and  C20_25
REMARK    5  A    between atoms: C16_21  and  C18_23
REMARK    6  A    between atoms: C20_25  and  O1_26
REMARK                            x       y       z     vdW  Elec       q    Type
REMARK                         _______ _______ _______ _____ _____    ______ ____
ROOT
ATOM      1  C   UNL     1      47.386  18.920  21.168  0.00  0.00    +0.026 C 
ATOM      2  C   UNL     1      47.180  18.698  19.669  0.00  0.00    -0.047 C 
ATOM      3  C   UNL     1      47.705  17.311  19.288  0.00  0.00    +0.024 C 
ATOM      4  C   UNL     1      49.194  17.213  19.624  0.00  0.00    -0.021 C 
ATOM      5  C   UNL     1      49.961  18.279  18.838  0.00  0.00    +0.177 C 
ATOM      8  C   UNL     1      49.446  19.664  19.231  0.00  0.00    -0.040 C 
ATOM     12  C   UNL     1      50.213  20.733  18.451  0.00  0.00    +0.037 C 
ATOM     13  C   UNL     1      45.681  18.747  19.350  0.00  0.00    +0.021 C 
ATOM     14  C   UNL     1      44.997  17.771  20.319  0.00  0.00    +0.045 C 
ATOM     15  C   UNL     1      43.548  18.174  20.598  0.00  0.00    -0.017 C 
ATOM     16  C   UNL     1      43.503  19.572  21.285  0.00  0.00    -0.079 C 
ATOM     17  C   UNL     1      44.824  20.441  21.052  0.00  0.00    +0.059 C 
ATOM     18  C   UNL     1      42.870  19.335  19.889  0.00  0.00    -0.114 C 
ATOM     19  C   UNL     1      41.350  19.313  19.715  0.00  0.00    +0.067 C 
ATOM     20  C   UNL     1      43.715  20.192  18.919  0.00  0.00    +0.051 C 
ATOM     21  C   UNL     1      45.130  20.167  19.569  0.00  0.00    -0.054 C 
ATOM     22  C   UNL     1      45.964  21.263  18.942  0.00  0.00    +0.023 C 
ATOM     23  C   UNL     1      47.433  21.144  19.343  0.00  0.00    +0.011 C 
ATOM     24  C   UNL     1      47.941  19.768  18.893  0.00  0.00    +0.033 C 
ENDROOT
BRANCH   5   6
ATOM      6  O   UNL     1      49.762  18.074  17.438  0.00  0.00    -0.561 OA
ATOM      7  H   UNL     1      50.179  18.745  16.879  0.00  0.00    +0.374 HD
ENDBRANCH   5   6
BRANCH   8   9
ATOM      9  C   UNL     1      49.657  19.880  20.731  0.00  0.00    +0.184 C 
BRANCH   9  10
ATOM     10  O   UNL     1      50.772  20.750  20.935  0.00  0.00    -0.576 OA
ATOM     11  H   UNL     1      51.623  20.363  20.691  0.00  0.00    +0.377 HD
ENDBRANCH   9  10
ENDBRANCH   8   9
TORSDOF 3
ENDMDL
