MODEL 1
REMARK VINA RESULT:      -7.8      0.000      0.000
REMARK  Name = ZINC30726919
REMARK  8 active torsions:
REMARK  status: ('A' for Active; 'I' for Inactive)
REMARK    1  A    between atoms: C1_1  and  N1_2
REMARK    2  A    between atoms: C6_7  and  O6_45
REMARK    3  A    between atoms: C7_8  and  O5_44
REMARK    4  A    between atoms: C22_25  and  O3_28
REMARK    5  A    between atoms: C23_26  and  O2_27
REMARK    6  A    between atoms: O3_28  and  C24_29
REMARK    7  A    between atoms: N2_32  and  C35_43
REMARK    8  A    between atoms: O6_45  and  C36_46
REMARK                            x       y       z     vdW  Elec       q    Type
REMARK                         _______ _______ _______ _____ _____    ______ ____
ROOT
ATOM      1  C   UNL     1      51.466  12.866  13.960  0.00  0.00    +0.190 C 
ATOM      2  N   UNL     1      51.695  12.892  15.411  0.00  0.00    -0.533 NA
ATOM      3  C   UNL     1      51.878  11.535  15.938  0.00  0.00    +0.216 C 
ATOM      4  C   UNL     1      50.659  10.683  15.609  0.00  0.00    +0.049 C 
ATOM      5  C   UNL     1      49.381  11.425  15.909  0.00  0.00    -0.050 A 
ATOM      6  C   UNL     1      48.205  10.697  15.977  0.00  0.00    -0.060 A 
ATOM      7  C   UNL     1      46.999  11.341  16.187  0.00  0.00    +0.121 A 
ATOM     10  C   UNL     1      46.967  12.724  16.329  0.00  0.00    +0.068 A 
ATOM     13  C   UNL     1      48.146  13.453  16.292  0.00  0.00    +0.095 A 
ATOM     14  O   UNL     1      48.149  14.788  16.420  0.00  0.00    -0.261 OA
ATOM     15  C   UNL     1      47.371  15.574  17.182  0.00  0.00    +0.092 A 
ATOM     16  C   UNL     1      47.020  15.253  18.481  0.00  0.00    -0.027 A 
ATOM     17  C   UNL     1      46.289  16.145  19.248  0.00  0.00    +0.028 A 
ATOM     18  C   UNL     1      45.918  17.363  18.715  0.00  0.00    -0.018 A 
ATOM     19  C   UNL     1      46.230  17.677  17.404  0.00  0.00    +0.036 A 
ATOM     20  C   UNL     1      45.151  18.362  19.537  0.00  0.00    +0.096 C 
ATOM     21  C   UNL     1      45.672  19.773  19.209  0.00  0.00    +0.245 C 
ATOM     22  N   UNL     1      44.585  20.721  19.448  0.00  0.00    -0.530 NA
ATOM     23  C   UNL     1      43.844  20.376  20.668  0.00  0.00    +0.185 C 
ATOM     24  C   UNL     1      45.081  22.100  19.505  0.00  0.00    +0.219 C 
ATOM     25  C   UNL     1      45.870  22.264  20.813  0.00  0.00    +0.046 C 
ATOM     26  C   UNL     1      46.950  21.220  20.847  0.00  0.00    -0.046 A 
ATOM     27  C   UNL     1      48.054  21.432  21.663  0.00  0.00    -0.079 A 
ATOM     28  C   UNL     1      49.087  20.509  21.699  0.00  0.00    +0.075 A 
ATOM     31  C   UNL     1      49.011  19.371  20.902  0.00  0.00    +0.056 A 
ATOM     34  C   UNL     1      47.912  19.149  20.097  0.00  0.00    +0.132 A 
ATOM     35  O   UNL     1      47.757  18.084  19.304  0.00  0.00    -0.230 OA
ATOM     36  C   UNL     1      48.658  17.167  18.941  0.00  0.00    +0.105 A 
ATOM     37  C   UNL     1      49.264  17.233  17.691  0.00  0.00    +0.009 A 
ATOM     38  C   UNL     1      50.065  16.201  17.253  0.00  0.00    +0.033 A 
ATOM     39  C   UNL     1      50.259  15.091  18.052  0.00  0.00    -0.065 A 
ATOM     40  C   UNL     1      49.755  15.069  19.341  0.00  0.00    -0.004 A 
ATOM     41  C   UNL     1      51.056  13.921  17.526  0.00  0.00    +0.095 C 
ATOM     42  C   UNL     1      48.957  16.101  19.788  0.00  0.00    +0.021 A 
ATOM     43  C   UNL     1      46.855  20.079  20.082  0.00  0.00    -0.144 A 
ATOM     44  C   UNL     1      46.945  16.786  16.637  0.00  0.00    +0.004 A 
ATOM     45  C   UNL     1      49.364  12.789  16.099  0.00  0.00    -0.125 A 
ATOM     46  C   UNL     1      50.624  13.609  16.098  0.00  0.00    +0.241 C 
ENDROOT
BRANCH   7   8
ATOM      8  O   UNL     1      45.845  10.623  16.253  0.00  0.00    -0.303 OA
ATOM      9  C   UNL     1      45.225  10.277  15.014  0.00  0.00    +0.237 C 
ENDBRANCH   7   8
BRANCH  10  11
ATOM     11  O   UNL     1      45.780  13.362  16.506  0.00  0.00    -0.494 OA
ATOM     12  H   UNL     1      45.645  14.389  16.134  0.00  0.00    +0.417 HD
ENDBRANCH  10  11
BRANCH  28  29
ATOM     29  O   UNL     1      50.167  20.715  22.501  0.00  0.00    -0.323 OA
ATOM     30  C   UNL     1      51.220  21.527  21.974  0.00  0.00    +0.249 C 
ENDBRANCH  28  29
BRANCH  31  32
ATOM     32  O   UNL     1      50.026  18.465  20.920  0.00  0.00    -0.499 OA
ATOM     33  H   UNL     1      50.824  18.518  20.165  0.00  0.00    +0.433 HD
ENDBRANCH  31  32
TORSDOF 4
ENDMDL
MODEL 2
REMARK VINA RESULT:      -7.5      0.646      9.248
REMARK  Name = ZINC30726919
REMARK  8 active torsions:
REMARK  status: ('A' for Active; 'I' for Inactive)
REMARK    1  A    between atoms: C1_1  and  N1_2
REMARK    2  A    between atoms: C6_7  and  O6_45
REMARK    3  A    between atoms: C7_8  and  O5_44
REMARK    4  A    between atoms: C22_25  and  O3_28
REMARK    5  A    between atoms: C23_26  and  O2_27
REMARK    6  A    between atoms: O3_28  and  C24_29
REMARK    7  A    between atoms: N2_32  and  C35_43
REMARK    8  A    between atoms: O6_45  and  C36_46
REMARK                            x       y       z     vdW  Elec       q    Type
REMARK                         _______ _______ _______ _____ _____    ______ ____
ROOT
ATOM      1  C   UNL     1      45.262  22.359  18.881  0.00  0.00    +0.190 C 
ATOM      2  N   UNL     1      44.810  21.114  19.516  0.00  0.00    -0.533 NA
ATOM      3  C   UNL     1      44.503  21.330  20.934  0.00  0.00    +0.216 C 
ATOM      4  C   UNL     1      45.730  21.875  21.654  0.00  0.00    +0.049 C 
ATOM      5  C   UNL     1      46.969  21.104  21.276  0.00  0.00    -0.050 A 
ATOM      6  C   UNL     1      48.095  21.251  22.067  0.00  0.00    -0.060 A 
ATOM      7  C   UNL     1      49.274  20.612  21.725  0.00  0.00    +0.121 A 
ATOM     10  C   UNL     1      49.328  19.821  20.583  0.00  0.00    +0.068 A 
ATOM     13  C   UNL     1      48.194  19.648  19.805  0.00  0.00    +0.095 A 
ATOM     14  O   UNL     1      48.215  18.897  18.694  0.00  0.00    -0.261 OA
ATOM     15  C   UNL     1      48.889  17.762  18.442  0.00  0.00    +0.092 A 
ATOM     16  C   UNL     1      49.022  16.745  19.370  0.00  0.00    -0.027 A 
ATOM     17  C   UNL     1      49.653  15.562  19.024  0.00  0.00    +0.028 A 
ATOM     18  C   UNL     1      50.142  15.395  17.744  0.00  0.00    -0.018 A 
ATOM     19  C   UNL     1      50.049  16.422  16.821  0.00  0.00    +0.036 A 
ATOM     20  C   UNL     1      50.803  14.109  17.333  0.00  0.00    +0.096 C 
ATOM     21  C   UNL     1      50.386  13.780  15.888  0.00  0.00    +0.245 C 
ATOM     22  N   UNL     1      51.453  12.985  15.281  0.00  0.00    -0.530 NA
ATOM     23  C   UNL     1      51.982  12.000  16.233  0.00  0.00    +0.185 C 
ATOM     24  C   UNL     1      50.999  12.334  14.048  0.00  0.00    +0.219 C 
ATOM     25  C   UNL     1      50.021  11.215  14.437  0.00  0.00    +0.046 C 
ATOM     26  C   UNL     1      48.915  11.817  15.257  0.00  0.00    -0.046 A 
ATOM     27  C   UNL     1      47.705  11.141  15.340  0.00  0.00    -0.079 A 
ATOM     28  C   UNL     1      46.649  11.678  16.060  0.00  0.00    +0.075 A 
ATOM     31  C   UNL     1      46.813  12.908  16.691  0.00  0.00    +0.056 A 
ATOM     34  C   UNL     1      48.016  13.580  16.621  0.00  0.00    +0.132 A 
ATOM     35  O   UNL     1      48.258  14.762  17.199  0.00  0.00    -0.230 OA
ATOM     36  C   UNL     1      47.395  15.626  17.739  0.00  0.00    +0.105 A 
ATOM     37  C   UNL     1      46.995  16.754  17.031  0.00  0.00    +0.009 A 
ATOM     38  C   UNL     1      46.239  17.727  17.648  0.00  0.00    +0.033 A 
ATOM     39  C   UNL     1      45.886  17.590  18.976  0.00  0.00    -0.065 A 
ATOM     40  C   UNL     1      46.182  16.418  19.654  0.00  0.00    -0.004 A 
ATOM     41  C   UNL     1      45.144  18.705  19.673  0.00  0.00    +0.095 C 
ATOM     42  C   UNL     1      46.934  15.438  19.041  0.00  0.00    +0.021 A 
ATOM     43  C   UNL     1      49.092  13.019  15.907  0.00  0.00    -0.144 A 
ATOM     44  C   UNL     1      49.434  17.603  17.168  0.00  0.00    +0.004 A 
ATOM     45  C   UNL     1      47.000  20.282  20.170  0.00  0.00    -0.125 A 
ATOM     46  C   UNL     1      45.783  20.043  19.320  0.00  0.00    +0.241 C 
ENDROOT
BRANCH   7   8
ATOM      8  O   UNL     1      50.380  20.759  22.505  0.00  0.00    -0.303 OA
ATOM      9  C   UNL     1      51.183  21.917  22.278  0.00  0.00    +0.237 C 
ENDBRANCH   7   8
BRANCH  10  11
ATOM     11  O   UNL     1      50.494  19.217  20.229  0.00  0.00    -0.494 OA
ATOM     12  H   UNL     1      50.536  18.122  20.124  0.00  0.00    +0.417 HD
ENDBRANCH  10  11
BRANCH  28  29
ATOM     29  O   UNL     1      45.465  11.014  16.144  0.00  0.00    -0.323 OA
ATOM     30  C   UNL     1      45.049  10.282  14.989  0.00  0.00    +0.249 C 
ENDBRANCH  28  29
BRANCH  31  32
ATOM     32  O   UNL     1      45.778  13.451  17.389  0.00  0.00    -0.499 OA
ATOM     33  H   UNL     1      45.617  14.539  17.377  0.00  0.00    +0.433 HD
ENDBRANCH  31  32
TORSDOF 4
ENDMDL
MODEL 3
REMARK VINA RESULT:      -7.4      2.348      4.497
REMARK  Name = ZINC30726919
REMARK  8 active torsions:
REMARK  status: ('A' for Active; 'I' for Inactive)
REMARK    1  A    between atoms: C1_1  and  N1_2
REMARK    2  A    between atoms: C6_7  and  O6_45
REMARK    3  A    between atoms: C7_8  and  O5_44
REMARK    4  A    between atoms: C22_25  and  O3_28
REMARK    5  A    between atoms: C23_26  and  O2_27
REMARK    6  A    between atoms: O3_28  and  C24_29
REMARK    7  A    between atoms: N2_32  and  C35_43
REMARK    8  A    between atoms: O6_45  and  C36_46
REMARK                            x       y       z     vdW  Elec       q    Type
REMARK                         _______ _______ _______ _____ _____    ______ ____
ROOT
ATOM      1  C   UNL     1      47.339  10.290  17.752  0.00  0.00    +0.190 C 
ATOM      2  N   UNL     1      46.551  11.463  17.350  0.00  0.00    -0.533 NA
ATOM      3  C   UNL     1      45.985  11.282  16.010  0.00  0.00    +0.216 C 
ATOM      4  C   UNL     1      47.101  11.024  15.005  0.00  0.00    +0.049 C 
ATOM      5  C   UNL     1      48.240  11.992  15.200  0.00  0.00    -0.050 A 
ATOM      6  C   UNL     1      49.176  12.110  14.187  0.00  0.00    -0.060 A 
ATOM      7  C   UNL     1      50.273  12.938  14.344  0.00  0.00    +0.121 A 
ATOM     10  C   UNL     1      50.437  13.652  15.526  0.00  0.00    +0.068 A 
ATOM     13  C   UNL     1      49.487  13.559  16.531  0.00  0.00    +0.095 A 
ATOM     14  O   UNL     1      49.620  14.231  17.685  0.00  0.00    -0.261 OA
ATOM     15  C   UNL     1      50.127  15.454  17.907  0.00  0.00    +0.092 A 
ATOM     16  C   UNL     1      49.878  16.534  17.079  0.00  0.00    -0.027 A 
ATOM     17  C   UNL     1      50.356  17.792  17.408  0.00  0.00    +0.028 A 
ATOM     18  C   UNL     1      51.075  17.968  18.572  0.00  0.00    -0.018 A 
ATOM     19  C   UNL     1      51.364  16.888  19.387  0.00  0.00    +0.036 A 
ATOM     20  C   UNL     1      51.579  19.329  18.968  0.00  0.00    +0.096 C 
ATOM     21  C   UNL     1      51.436  19.482  20.493  0.00  0.00    +0.245 C 
ATOM     22  N   UNL     1      52.457  20.426  20.948  0.00  0.00    -0.530 NA
ATOM     23  C   UNL     1      52.589  21.551  20.012  0.00  0.00    +0.185 C 
ATOM     24  C   UNL     1      52.177  20.902  22.306  0.00  0.00    +0.219 C 
ATOM     25  C   UNL     1      50.961  21.837  22.239  0.00  0.00    +0.046 C 
ATOM     26  C   UNL     1      49.823  21.088  21.603  0.00  0.00    -0.046 A 
ATOM     27  C   UNL     1      48.526  21.526  21.836  0.00  0.00    -0.079 A 
ATOM     28  C   UNL     1      47.448  20.844  21.295  0.00  0.00    +0.075 A 
ATOM     31  C   UNL     1      47.679  19.709  20.523  0.00  0.00    +0.056 A 
ATOM     34  C   UNL     1      48.965  19.274  20.280  0.00  0.00    +0.132 A 
ATOM     35  O   UNL     1      49.276  18.198  19.549  0.00  0.00    -0.230 OA
ATOM     36  C   UNL     1      48.478  17.221  19.110  0.00  0.00    +0.105 A 
ATOM     37  C   UNL     1      48.441  15.996  19.767  0.00  0.00    +0.009 A 
ATOM     38  C   UNL     1      47.748  14.937  19.221  0.00  0.00    +0.033 A 
ATOM     39  C   UNL     1      47.097  15.087  18.013  0.00  0.00    -0.065 A 
ATOM     40  C   UNL     1      47.032  16.333  17.412  0.00  0.00    -0.004 A 
ATOM     41  C   UNL     1      46.424  13.897  17.372  0.00  0.00    +0.095 C 
ATOM     42  C   UNL     1      47.718  17.398  17.955  0.00  0.00    +0.021 A 
ATOM     43  C   UNL     1      50.058  19.985  20.813  0.00  0.00    -0.144 A 
ATOM     44  C   UNL     1      50.901  15.635  19.054  0.00  0.00    +0.004 A 
ATOM     45  C   UNL     1      48.370  12.734  16.353  0.00  0.00    -0.125 A 
ATOM     46  C   UNL     1      47.345  12.685  17.452  0.00  0.00    +0.241 C 
ENDROOT
BRANCH   7   8
ATOM      8  O   UNL     1      51.191  13.052  13.346  0.00  0.00    -0.303 OA
ATOM      9  C   UNL     1      50.714  12.901  12.008  0.00  0.00    +0.237 C 
ENDBRANCH   7   8
BRANCH  10  11
ATOM     11  O   UNL     1      51.530  14.444  15.695  0.00  0.00    -0.494 OA
ATOM     12  H   UNL     1      52.347  14.419  14.959  0.00  0.00    +0.417 HD
ENDBRANCH  10  11
BRANCH  28  29
ATOM     29  O   UNL     1      46.177  21.276  21.520  0.00  0.00    -0.323 OA
ATOM     30  C   UNL     1      45.833  22.569  21.017  0.00  0.00    +0.249 C 
ENDBRANCH  28  29
BRANCH  31  32
ATOM     32  O   UNL     1      46.626  19.024  19.998  0.00  0.00    -0.499 OA
ATOM     33  H   UNL     1      45.598  19.357  20.202  0.00  0.00    +0.433 HD
ENDBRANCH  31  32
TORSDOF 4
ENDMDL
MODEL 4
REMARK VINA RESULT:      -6.4      3.465      4.858
REMARK  Name = ZINC30726919
REMARK  8 active torsions:
REMARK  status: ('A' for Active; 'I' for Inactive)
REMARK    1  A    between atoms: C1_1  and  N1_2
REMARK    2  A    between atoms: C6_7  and  O6_45
REMARK    3  A    between atoms: C7_8  and  O5_44
REMARK    4  A    between atoms: C22_25  and  O3_28
REMARK    5  A    between atoms: C23_26  and  O2_27
REMARK    6  A    between atoms: O3_28  and  C24_29
REMARK    7  A    between atoms: N2_32  and  C35_43
REMARK    8  A    between atoms: O6_45  and  C36_46
REMARK                            x       y       z     vdW  Elec       q    Type
REMARK                         _______ _______ _______ _____ _____    ______ ____
ROOT
ATOM      1  C   UNL     1      52.496  15.695  17.602  0.00  0.00    +0.190 C 
ATOM      2  N   UNL     1      52.401  16.780  18.587  0.00  0.00    -0.533 NA
ATOM      3  C   UNL     1      53.331  16.563  19.700  0.00  0.00    +0.216 C 
ATOM      4  C   UNL     1      53.044  15.222  20.361  0.00  0.00    +0.049 C 
ATOM      5  C   UNL     1      51.565  15.034  20.588  0.00  0.00    -0.050 A 
ATOM      6  C   UNL     1      51.160  14.035  21.457  0.00  0.00    -0.060 A 
ATOM      7  C   UNL     1      49.814  13.783  21.650  0.00  0.00    +0.121 A 
ATOM     10  C   UNL     1      48.863  14.534  20.967  0.00  0.00    +0.068 A 
ATOM     13  C   UNL     1      49.264  15.555  20.119  0.00  0.00    +0.095 A 
ATOM     14  O   UNL     1      48.373  16.294  19.442  0.00  0.00    -0.261 OA
ATOM     15  C   UNL     1      47.156  16.720  19.817  0.00  0.00    +0.092 A 
ATOM     16  C   UNL     1      46.884  17.199  21.086  0.00  0.00    -0.027 A 
ATOM     17  C   UNL     1      45.631  17.706  21.388  0.00  0.00    +0.028 A 
ATOM     18  C   UNL     1      44.654  17.742  20.414  0.00  0.00    -0.018 A 
ATOM     19  C   UNL     1      44.903  17.228  19.153  0.00  0.00    +0.036 A 
ATOM     20  C   UNL     1      43.295  18.315  20.707  0.00  0.00    +0.096 C 
ATOM     21  C   UNL     1      42.815  19.099  19.472  0.00  0.00    +0.245 C 
ATOM     22  N   UNL     1      41.352  19.084  19.470  0.00  0.00    -0.530 NA
ATOM     23  C   UNL     1      40.822  19.273  20.827  0.00  0.00    +0.185 C 
ATOM     24  C   UNL     1      40.809  20.087  18.548  0.00  0.00    +0.219 C 
ATOM     25  C   UNL     1      41.060  21.475  19.158  0.00  0.00    +0.046 C 
ATOM     26  C   UNL     1      42.533  21.615  19.420  0.00  0.00    -0.046 A 
ATOM     27  C   UNL     1      43.070  22.891  19.530  0.00  0.00    -0.079 A 
ATOM     28  C   UNL     1      44.429  23.065  19.740  0.00  0.00    +0.075 A 
ATOM     31  C   UNL     1      45.252  21.946  19.831  0.00  0.00    +0.056 A 
ATOM     34  C   UNL     1      44.723  20.675  19.733  0.00  0.00    +0.132 A 
ATOM     35  O   UNL     1      45.440  19.549  19.812  0.00  0.00    -0.230 OA
ATOM     36  C   UNL     1      46.766  19.390  19.767  0.00  0.00    +0.105 A 
ATOM     37  C   UNL     1      47.383  18.967  18.595  0.00  0.00    +0.009 A 
ATOM     38  C   UNL     1      48.722  18.645  18.596  0.00  0.00    +0.033 A 
ATOM     39  C   UNL     1      49.454  18.731  19.764  0.00  0.00    -0.065 A 
ATOM     40  C   UNL     1      48.875  19.261  20.905  0.00  0.00    -0.004 A 
ATOM     41  C   UNL     1      50.895  18.281  19.780  0.00  0.00    +0.095 C 
ATOM     42  C   UNL     1      47.537  19.590  20.911  0.00  0.00    +0.021 A 
ATOM     43  C   UNL     1      43.339  20.505  19.542  0.00  0.00    -0.144 A 
ATOM     44  C   UNL     1      46.144  16.712  18.856  0.00  0.00    +0.004 A 
ATOM     45  C   UNL     1      50.629  15.815  19.946  0.00  0.00    -0.125 A 
ATOM     46  C   UNL     1      51.024  16.952  19.045  0.00  0.00    +0.241 C 
ENDROOT
BRANCH   7   8
ATOM      8  O   UNL     1      49.419  12.800  22.505  0.00  0.00    -0.303 OA
ATOM      9  C   UNL     1      49.365  11.471  21.983  0.00  0.00    +0.237 C 
ENDBRANCH   7   8
BRANCH  10  11
ATOM     11  O   UNL     1      47.540  14.269  21.132  0.00  0.00    -0.494 OA
ATOM     12  H   UNL     1      46.846  14.381  20.286  0.00  0.00    +0.417 HD
ENDBRANCH  10  11
BRANCH  28  29
ATOM     29  O   UNL     1      44.955  24.315  19.850  0.00  0.00    -0.323 OA
ATOM     30  C   UNL     1      44.673  25.233  18.791  0.00  0.00    +0.249 C 
ENDBRANCH  28  29
BRANCH  31  32
ATOM     32  O   UNL     1      46.590  22.106  20.024  0.00  0.00    -0.499 OA
ATOM     33  H   UNL     1      47.050  23.095  19.887  0.00  0.00    +0.433 HD
ENDBRANCH  31  32
TORSDOF 4
ENDMDL
MODEL 5
REMARK VINA RESULT:      -6.4      2.417      8.603
REMARK  Name = ZINC30726919
REMARK  8 active torsions:
REMARK  status: ('A' for Active; 'I' for Inactive)
REMARK    1  A    between atoms: C1_1  and  N1_2
REMARK    2  A    between atoms: C6_7  and  O6_45
REMARK    3  A    between atoms: C7_8  and  O5_44
REMARK    4  A    between atoms: C22_25  and  O3_28
REMARK    5  A    between atoms: C23_26  and  O2_27
REMARK    6  A    between atoms: O3_28  and  C24_29
REMARK    7  A    between atoms: N2_32  and  C35_43
REMARK    8  A    between atoms: O6_45  and  C36_46
REMARK                            x       y       z     vdW  Elec       q    Type
REMARK                         _______ _______ _______ _____ _____    ______ ____
ROOT
ATOM      1  C   UNL     1      46.915  22.155  22.485  0.00  0.00    +0.190 C 
ATOM      2  N   UNL     1      46.931  21.969  21.028  0.00  0.00    -0.533 NA
ATOM      3  C   UNL     1      45.866  22.748  20.388  0.00  0.00    +0.216 C 
ATOM      4  C   UNL     1      44.512  22.344  20.958  0.00  0.00    +0.049 C 
ATOM      5  C   UNL     1      44.383  20.844  21.038  0.00  0.00    -0.050 A 
ATOM      6  C   UNL     1      43.121  20.307  21.223  0.00  0.00    -0.060 A 
ATOM      7  C   UNL     1      42.960  18.940  21.365  0.00  0.00    +0.121 A 
ATOM     10  C   UNL     1      44.070  18.103  21.323  0.00  0.00    +0.068 A 
ATOM     13  C   UNL     1      45.332  18.634  21.108  0.00  0.00    +0.095 A 
ATOM     14  O   UNL     1      46.422  17.855  21.068  0.00  0.00    -0.261 OA
ATOM     15  C   UNL     1      46.567  16.613  20.578  0.00  0.00    +0.092 A 
ATOM     16  C   UNL     1      45.987  16.200  19.392  0.00  0.00    -0.027 A 
ATOM     17  C   UNL     1      46.244  14.934  18.892  0.00  0.00    +0.028 A 
ATOM     18  C   UNL     1      47.090  14.086  19.576  0.00  0.00    -0.018 A 
ATOM     19  C   UNL     1      47.644  14.475  20.784  0.00  0.00    +0.036 A 
ATOM     20  C   UNL     1      47.410  12.718  19.040  0.00  0.00    +0.096 C 
ATOM     21  C   UNL     1      48.895  12.417  19.314  0.00  0.00    +0.245 C 
ATOM     22  N   UNL     1      49.048  10.966  19.417  0.00  0.00    -0.530 NA
ATOM     23  C   UNL     1      48.238  10.277  18.404  0.00  0.00    +0.185 C 
ATOM     24  C   UNL     1      50.457  10.570  19.324  0.00  0.00    +0.219 C 
ATOM     25  C   UNL     1      50.912  10.782  17.872  0.00  0.00    +0.046 C 
ATOM     26  C   UNL     1      50.651  12.215  17.501  0.00  0.00    -0.046 A 
ATOM     27  C   UNL     1      51.367  12.770  16.448  0.00  0.00    -0.079 A 
ATOM     28  C   UNL     1      51.180  14.097  16.094  0.00  0.00    +0.075 A 
ATOM     31  C   UNL     1      50.271  14.870  16.812  0.00  0.00    +0.056 A 
ATOM     34  C   UNL     1      49.549  14.322  17.852  0.00  0.00    +0.132 A 
ATOM     35  O   UNL     1      48.657  14.991  18.590  0.00  0.00    -0.230 OA
ATOM     36  C   UNL     1      48.437  16.307  18.655  0.00  0.00    +0.105 A 
ATOM     37  C   UNL     1      48.945  17.053  19.714  0.00  0.00    +0.009 A 
ATOM     38  C   UNL     1      48.580  18.372  19.869  0.00  0.00    +0.033 A 
ATOM     39  C   UNL     1      47.700  18.956  18.979  0.00  0.00    -0.065 A 
ATOM     40  C   UNL     1      47.282  18.256  17.859  0.00  0.00    -0.004 A 
ATOM     41  C   UNL     1      47.228  20.371  19.212  0.00  0.00    +0.095 C 
ATOM     42  C   UNL     1      47.647  16.936  17.695  0.00  0.00    +0.021 A 
ATOM     43  C   UNL     1      49.728  12.967  18.192  0.00  0.00    -0.144 A 
ATOM     44  C   UNL     1      47.378  15.728  21.288  0.00  0.00    +0.004 A 
ATOM     45  C   UNL     1      45.482  20.017  20.945  0.00  0.00    -0.125 A 
ATOM     46  C   UNL     1      46.862  20.552  20.680  0.00  0.00    +0.241 C 
ENDROOT
BRANCH   7   8
ATOM      8  O   UNL     1      41.717  18.415  21.547  0.00  0.00    -0.303 OA
ATOM      9  C   UNL     1      40.613  19.184  21.069  0.00  0.00    +0.237 C 
ENDBRANCH   7   8
BRANCH  10  11
ATOM     11  O   UNL     1      43.917  16.762  21.492  0.00  0.00    -0.494 OA
ATOM     12  H   UNL     1      42.962  16.359  21.861  0.00  0.00    +0.417 HD
ENDBRANCH  10  11
BRANCH  28  29
ATOM     29  O   UNL     1      51.879  14.640  15.061  0.00  0.00    -0.323 OA
ATOM     30  C   UNL     1      52.230  13.766  13.986  0.00  0.00    +0.249 C 
ENDBRANCH  28  29
BRANCH  31  32
ATOM     32  O   UNL     1      50.089  16.178  16.481  0.00  0.00    -0.499 OA
ATOM     33  H   UNL     1      50.522  16.969  17.110  0.00  0.00    +0.433 HD
ENDBRANCH  31  32
TORSDOF 4
ENDMDL
MODEL 6
REMARK VINA RESULT:      -5.9      3.520      8.384
REMARK  Name = ZINC30726919
REMARK  8 active torsions:
REMARK  status: ('A' for Active; 'I' for Inactive)
REMARK    1  A    between atoms: C1_1  and  N1_2
REMARK    2  A    between atoms: C6_7  and  O6_45
REMARK    3  A    between atoms: C7_8  and  O5_44
REMARK    4  A    between atoms: C22_25  and  O3_28
REMARK    5  A    between atoms: C23_26  and  O2_27
REMARK    6  A    between atoms: O3_28  and  C24_29
REMARK    7  A    between atoms: N2_32  and  C35_43
REMARK    8  A    between atoms: O6_45  and  C36_46
REMARK                            x       y       z     vdW  Elec       q    Type
REMARK                         _______ _______ _______ _____ _____    ______ ____
ROOT
ATOM      1  C   UNL     1      44.715  23.647  21.756  0.00  0.00    +0.190 C 
ATOM      2  N   UNL     1      45.442  23.317  20.522  0.00  0.00    -0.533 NA
ATOM      3  C   UNL     1      44.779  23.899  19.350  0.00  0.00    +0.216 C 
ATOM      4  C   UNL     1      43.342  23.402  19.267  0.00  0.00    +0.049 C 
ATOM      5  C   UNL     1      43.269  21.913  19.492  0.00  0.00    -0.050 A 
ATOM      6  C   UNL     1      42.104  21.255  19.135  0.00  0.00    -0.060 A 
ATOM      7  C   UNL     1      41.966  19.901  19.379  0.00  0.00    +0.121 A 
ATOM     10  C   UNL     1      43.001  19.197  19.987  0.00  0.00    +0.068 A 
ATOM     13  C   UNL     1      44.180  19.846  20.319  0.00  0.00    +0.095 A 
ATOM     14  O   UNL     1      45.194  19.197  20.911  0.00  0.00    -0.261 OA
ATOM     15  C   UNL     1      45.622  17.937  20.732  0.00  0.00    +0.092 A 
ATOM     16  C   UNL     1      45.709  17.341  19.486  0.00  0.00    -0.027 A 
ATOM     17  C   UNL     1      46.241  16.070  19.355  0.00  0.00    +0.028 A 
ATOM     18  C   UNL     1      46.695  15.398  20.472  0.00  0.00    -0.018 A 
ATOM     19  C   UNL     1      46.575  15.969  21.728  0.00  0.00    +0.036 A 
ATOM     20  C   UNL     1      47.305  14.029  20.354  0.00  0.00    +0.096 C 
ATOM     21  C   UNL     1      48.486  13.930  21.336  0.00  0.00    +0.245 C 
ATOM     22  N   UNL     1      48.647  12.525  21.707  0.00  0.00    -0.530 NA
ATOM     23  C   UNL     1      48.464  11.648  20.543  0.00  0.00    +0.185 C 
ATOM     24  C   UNL     1      49.944  12.286  22.347  0.00  0.00    +0.219 C 
ATOM     25  C   UNL     1      51.032  12.401  21.269  0.00  0.00    +0.046 C 
ATOM     26  C   UNL     1      50.908  13.749  20.616  0.00  0.00    -0.046 A 
ATOM     27  C   UNL     1      52.013  14.273  19.958  0.00  0.00    -0.079 A 
ATOM     28  C   UNL     1      51.950  15.527  19.370  0.00  0.00    +0.075 A 
ATOM     31  C   UNL     1      50.769  16.259  19.455  0.00  0.00    +0.056 A 
ATOM     34  C   UNL     1      49.664  15.740  20.098  0.00  0.00    +0.132 A 
ATOM     35  O   UNL     1      48.493  16.373  20.222  0.00  0.00    -0.230 OA
ATOM     36  C   UNL     1      48.201  17.655  19.985  0.00  0.00    +0.105 A 
ATOM     37  C   UNL     1      48.095  18.557  21.038  0.00  0.00    +0.009 A 
ATOM     38  C   UNL     1      47.632  19.835  20.811  0.00  0.00    +0.033 A 
ATOM     39  C   UNL     1      47.262  20.220  19.538  0.00  0.00    -0.065 A 
ATOM     40  C   UNL     1      47.473  19.367  18.467  0.00  0.00    -0.004 A 
ATOM     41  C   UNL     1      46.662  21.588  19.313  0.00  0.00    +0.095 C 
ATOM     42  C   UNL     1      47.940  18.088  18.687  0.00  0.00    +0.021 A 
ATOM     43  C   UNL     1      49.727  14.456  20.673  0.00  0.00    -0.144 A 
ATOM     44  C   UNL     1      46.034  17.227  21.860  0.00  0.00    +0.004 A 
ATOM     45  C   UNL     1      44.317  21.213  20.048  0.00  0.00    -0.125 A 
ATOM     46  C   UNL     1      45.624  21.874  20.391  0.00  0.00    +0.241 C 
ENDROOT
BRANCH   7   8
ATOM      8  O   UNL     1      40.820  19.257  19.027  0.00  0.00    -0.303 OA
ATOM      9  C   UNL     1      40.213  19.643  17.793  0.00  0.00    +0.237 C 
ENDBRANCH   7   8
BRANCH  10  11
ATOM     11  O   UNL     1      42.856  17.872  20.255  0.00  0.00    -0.494 OA
ATOM     12  H   UNL     1      41.957  17.336  19.916  0.00  0.00    +0.417 HD
ENDBRANCH  10  11
BRANCH  28  29
ATOM     29  O   UNL     1      53.031  16.039  18.723  0.00  0.00    -0.323 OA
ATOM     30  C   UNL     1      54.203  16.276  19.506  0.00  0.00    +0.249 C 
ENDBRANCH  28  29
BRANCH  31  32
ATOM     32  O   UNL     1      50.701  17.497  18.892  0.00  0.00    -0.499 OA
ATOM     33  H   UNL     1      49.758  18.062  18.920  0.00  0.00    +0.433 HD
ENDBRANCH  31  32
TORSDOF 4
ENDMDL
MODEL 7
REMARK VINA RESULT:      -5.7      2.620      4.427
REMARK  Name = ZINC30726919
REMARK  8 active torsions:
REMARK  status: ('A' for Active; 'I' for Inactive)
REMARK    1  A    between atoms: C1_1  and  N1_2
REMARK    2  A    between atoms: C6_7  and  O6_45
REMARK    3  A    between atoms: C7_8  and  O5_44
REMARK    4  A    between atoms: C22_25  and  O3_28
REMARK    5  A    between atoms: C23_26  and  O2_27
REMARK    6  A    between atoms: O3_28  and  C24_29
REMARK    7  A    between atoms: N2_32  and  C35_43
REMARK    8  A    between atoms: O6_45  and  C36_46
REMARK                            x       y       z     vdW  Elec       q    Type
REMARK                         _______ _______ _______ _____ _____    ______ ____
ROOT
ATOM      1  C   UNL     1      51.145  11.012  20.240  0.00  0.00    +0.190 C 
ATOM      2  N   UNL     1      49.763  11.103  19.749  0.00  0.00    -0.533 NA
ATOM      3  C   UNL     1      49.575  10.277  18.553  0.00  0.00    +0.216 C 
ATOM      4  C   UNL     1      50.553  10.706  17.466  0.00  0.00    +0.049 C 
ATOM      5  C   UNL     1      50.585  12.207  17.328  0.00  0.00    -0.050 A 
ATOM      6  C   UNL     1      51.163  12.745  16.191  0.00  0.00    -0.060 A 
ATOM      7  C   UNL     1      51.272  14.117  16.048  0.00  0.00    +0.121 A 
ATOM     10  C   UNL     1      50.802  14.958  17.051  0.00  0.00    +0.068 A 
ATOM     13  C   UNL     1      50.196  14.424  18.177  0.00  0.00    +0.095 A 
ATOM     14  O   UNL     1      49.737  15.208  19.164  0.00  0.00    -0.261 OA
ATOM     15  C   UNL     1      49.156  16.416  19.095  0.00  0.00    +0.092 A 
ATOM     16  C   UNL     1      48.221  16.747  18.131  0.00  0.00    -0.027 A 
ATOM     17  C   UNL     1      47.590  17.980  18.163  0.00  0.00    +0.028 A 
ATOM     18  C   UNL     1      47.891  18.877  19.167  0.00  0.00    -0.018 A 
ATOM     19  C   UNL     1      48.854  18.572  20.113  0.00  0.00    +0.036 A 
ATOM     20  C   UNL     1      47.199  20.210  19.243  0.00  0.00    +0.096 C 
ATOM     21  C   UNL     1      46.926  20.540  20.722  0.00  0.00    +0.245 C 
ATOM     22  N   UNL     1      46.886  21.996  20.858  0.00  0.00    -0.530 NA
ATOM     23  C   UNL     1      46.176  22.611  19.729  0.00  0.00    +0.185 C 
ATOM     24  C   UNL     1      46.290  22.396  22.136  0.00  0.00    +0.219 C 
ATOM     25  C   UNL     1      44.785  22.094  22.072  0.00  0.00    +0.046 C 
ATOM     26  C   UNL     1      44.610  20.638  21.741  0.00  0.00    -0.046 A 
ATOM     27  C   UNL     1      43.409  20.022  22.068  0.00  0.00    -0.079 A 
ATOM     28  C   UNL     1      43.220  18.673  21.810  0.00  0.00    +0.075 A 
ATOM     31  C   UNL     1      44.250  17.941  21.227  0.00  0.00    +0.056 A 
ATOM     34  C   UNL     1      45.442  18.550  20.890  0.00  0.00    +0.132 A 
ATOM     35  O   UNL     1      46.479  17.923  20.326  0.00  0.00    -0.230 OA
ATOM     36  C   UNL     1      46.692  16.612  20.181  0.00  0.00    +0.105 A 
ATOM     37  C   UNL     1      47.552  15.940  21.043  0.00  0.00    +0.009 A 
ATOM     38  C   UNL     1      47.900  14.631  20.793  0.00  0.00    +0.033 A 
ATOM     39  C   UNL     1      47.403  13.984  19.679  0.00  0.00    -0.065 A 
ATOM     40  C   UNL     1      46.458  14.607  18.881  0.00  0.00    -0.004 A 
ATOM     41  C   UNL     1      47.867  12.583  19.357  0.00  0.00    +0.095 C 
ATOM     42  C   UNL     1      46.102  15.916  19.128  0.00  0.00    +0.021 A 
ATOM     43  C   UNL     1      45.620  19.925  21.135  0.00  0.00    -0.144 A 
ATOM     44  C   UNL     1      49.491  17.352  20.074  0.00  0.00    +0.004 A 
ATOM     45  C   UNL     1      50.072  13.035  18.303  0.00  0.00    -0.125 A 
ATOM     46  C   UNL     1      49.379  12.494  19.523  0.00  0.00    +0.241 C 
ENDROOT
BRANCH   7   8
ATOM      8  O   UNL     1      51.840  14.643  14.928  0.00  0.00    -0.303 OA
ATOM      9  C   UNL     1      52.164  13.731  13.877  0.00  0.00    +0.237 C 
ENDBRANCH   7   8
BRANCH  10  11
ATOM     11  O   UNL     1      50.935  16.306  16.925  0.00  0.00    -0.494 OA
ATOM     12  H   UNL     1      50.041  16.940  16.825  0.00  0.00    +0.417 HD
ENDBRANCH  10  11
BRANCH  28  29
ATOM     29  O   UNL     1      42.042  18.070  22.127  0.00  0.00    -0.323 OA
ATOM     30  C   UNL     1      40.880  18.500  21.414  0.00  0.00    +0.249 C 
ENDBRANCH  28  29
BRANCH  31  32
ATOM     32  O   UNL     1      44.079  16.613  20.981  0.00  0.00    -0.499 OA
ATOM     33  H   UNL     1      43.478  16.287  20.120  0.00  0.00    +0.433 HD
ENDBRANCH  31  32
TORSDOF 4
ENDMDL
MODEL 8
REMARK VINA RESULT:      -4.7      3.757      9.129
REMARK  Name = ZINC30726919
REMARK  8 active torsions:
REMARK  status: ('A' for Active; 'I' for Inactive)
REMARK    1  A    between atoms: C1_1  and  N1_2
REMARK    2  A    between atoms: C6_7  and  O6_45
REMARK    3  A    between atoms: C7_8  and  O5_44
REMARK    4  A    between atoms: C22_25  and  O3_28
REMARK    5  A    between atoms: C23_26  and  O2_27
REMARK    6  A    between atoms: O3_28  and  C24_29
REMARK    7  A    between atoms: N2_32  and  C35_43
REMARK    8  A    between atoms: O6_45  and  C36_46
REMARK                            x       y       z     vdW  Elec       q    Type
REMARK                         _______ _______ _______ _____ _____    ______ ____
ROOT
ATOM      1  C   UNL     1      44.692  19.287  18.143  0.00  0.00    +0.190 C 
ATOM      2  N   UNL     1      44.812  18.331  19.252  0.00  0.00    -0.533 NA
ATOM      3  C   UNL     1      43.938  18.708  20.367  0.00  0.00    +0.216 C 
ATOM      4  C   UNL     1      44.280  20.115  20.842  0.00  0.00    +0.049 C 
ATOM      5  C   UNL     1      45.771  20.293  20.979  0.00  0.00    -0.050 A 
ATOM      6  C   UNL     1      46.234  21.383  21.697  0.00  0.00    -0.060 A 
ATOM      7  C   UNL     1      47.592  21.623  21.799  0.00  0.00    +0.121 A 
ATOM     10  C   UNL     1      48.496  20.769  21.175  0.00  0.00    +0.068 A 
ATOM     13  C   UNL     1      48.037  19.661  20.481  0.00  0.00    +0.095 A 
ATOM     14  O   UNL     1      48.883  18.822  19.864  0.00  0.00    -0.261 OA
ATOM     15  C   UNL     1      50.107  18.416  20.237  0.00  0.00    +0.092 A 
ATOM     16  C   UNL     1      50.428  18.093  21.543  0.00  0.00    -0.027 A 
ATOM     17  C   UNL     1      51.684  17.597  21.852  0.00  0.00    +0.028 A 
ATOM     18  C   UNL     1      52.615  17.416  20.850  0.00  0.00    -0.018 A 
ATOM     19  C   UNL     1      52.318  17.774  19.546  0.00  0.00    +0.036 A 
ATOM     20  C   UNL     1      53.974  16.850  21.154  0.00  0.00    +0.096 C 
ATOM     21  C   UNL     1      54.382  15.907  20.008  0.00  0.00    +0.245 C 
ATOM     22  N   UNL     1      55.843  15.885  19.941  0.00  0.00    -0.530 NA
ATOM     23  C   UNL     1      56.431  15.854  21.286  0.00  0.00    +0.185 C 
ATOM     24  C   UNL     1      56.324  14.762  19.130  0.00  0.00    +0.219 C 
ATOM     25  C   UNL     1      56.075  13.468  19.919  0.00  0.00    +0.046 C 
ATOM     26  C   UNL     1      54.613  13.398  20.261  0.00  0.00    -0.046 A 
ATOM     27  C   UNL     1      54.058  12.159  20.553  0.00  0.00    -0.079 A 
ATOM     28  C   UNL     1      52.707  12.046  20.841  0.00  0.00    +0.075 A 
ATOM     31  C   UNL     1      51.911  13.188  20.826  0.00  0.00    +0.056 A 
ATOM     34  C   UNL     1      52.458  14.423  20.547  0.00  0.00    +0.132 A 
ATOM     35  O   UNL     1      51.768  15.568  20.515  0.00  0.00    -0.230 OA
ATOM     36  C   UNL     1      50.444  15.752  20.507  0.00  0.00    +0.105 A 
ATOM     37  C   UNL     1      49.782  16.041  19.319  0.00  0.00    +0.009 A 
ATOM     38  C   UNL     1      48.450  16.393  19.336  0.00  0.00    +0.033 A 
ATOM     39  C   UNL     1      47.772  16.471  20.536  0.00  0.00    -0.065 A 
ATOM     40  C   UNL     1      48.392  16.074  21.710  0.00  0.00    -0.004 A 
ATOM     41  C   UNL     1      46.341  16.955  20.558  0.00  0.00    +0.095 C 
ATOM     42  C   UNL     1      49.723  15.715  21.699  0.00  0.00    +0.021 A 
ATOM     43  C   UNL     1      53.836  14.534  20.277  0.00  0.00    -0.144 A 
ATOM     44  C   UNL     1      51.074  18.280  19.241  0.00  0.00    +0.004 A 
ATOM     45  C   UNL     1      46.661  19.415  20.402  0.00  0.00    -0.125 A 
ATOM     46  C   UNL     1      46.204  18.184  19.668  0.00  0.00    +0.241 C 
ENDROOT
BRANCH   7   8
ATOM      8  O   UNL     1      48.044  22.695  22.505  0.00  0.00    -0.303 OA
ATOM      9  C   UNL     1      47.391  23.944  22.276  0.00  0.00    +0.237 C 
ENDBRANCH   7   8
BRANCH  10  11
ATOM     11  O   UNL     1      49.831  21.021  21.249  0.00  0.00    -0.494 OA
ATOM     12  H   UNL     1      50.297  21.729  20.548  0.00  0.00    +0.417 HD
ENDBRANCH  10  11
BRANCH  28  29
ATOM     29  O   UNL     1      52.164  10.833  21.131  0.00  0.00    -0.323 OA
ATOM     30  C   UNL     1      52.346  10.341  22.461  0.00  0.00    +0.249 C 
ENDBRANCH  28  29
BRANCH  31  32
ATOM     32  O   UNL     1      50.580  13.086  21.095  0.00  0.00    -0.499 OA
ATOM     33  H   UNL     1      49.915  13.942  20.911  0.00  0.00    +0.433 HD
ENDBRANCH  31  32
TORSDOF 4
ENDMDL
MODEL 9
REMARK VINA RESULT:      -4.5      3.529      8.810
REMARK  Name = ZINC30726919
REMARK  8 active torsions:
REMARK  status: ('A' for Active; 'I' for Inactive)
REMARK    1  A    between atoms: C1_1  and  N1_2
REMARK    2  A    between atoms: C6_7  and  O6_45
REMARK    3  A    between atoms: C7_8  and  O5_44
REMARK    4  A    between atoms: C22_25  and  O3_28
REMARK    5  A    between atoms: C23_26  and  O2_27
REMARK    6  A    between atoms: O3_28  and  C24_29
REMARK    7  A    between atoms: N2_32  and  C35_43
REMARK    8  A    between atoms: O6_45  and  C36_46
REMARK                            x       y       z     vdW  Elec       q    Type
REMARK                         _______ _______ _______ _____ _____    ______ ____
ROOT
ATOM      1  C   UNL     1      40.963  19.489  17.637  0.00  0.00    +0.190 C 
ATOM      2  N   UNL     1      41.291  19.059  19.003  0.00  0.00    -0.533 NA
ATOM      3  C   UNL     1      40.652  19.929  19.996  0.00  0.00    +0.216 C 
ATOM      4  C   UNL     1      41.085  21.372  19.777  0.00  0.00    +0.049 C 
ATOM      5  C   UNL     1      42.575  21.466  19.565  0.00  0.00    -0.050 A 
ATOM      6  C   UNL     1      43.172  22.710  19.674  0.00  0.00    -0.060 A 
ATOM      7  C   UNL     1      44.526  22.856  19.428  0.00  0.00    +0.121 A 
ATOM     10  C   UNL     1      45.288  21.750  19.067  0.00  0.00    +0.068 A 
ATOM     13  C   UNL     1      44.699  20.498  18.986  0.00  0.00    +0.095 A 
ATOM     14  O   UNL     1      45.406  19.413  18.636  0.00  0.00    -0.261 OA
ATOM     15  C   UNL     1      46.678  19.093  18.923  0.00  0.00    +0.092 A 
ATOM     16  C   UNL     1      47.244  19.302  20.168  0.00  0.00    -0.027 A 
ATOM     17  C   UNL     1      48.534  18.871  20.430  0.00  0.00    +0.028 A 
ATOM     18  C   UNL     1      49.253  18.221  19.447  0.00  0.00    -0.018 A 
ATOM     19  C   UNL     1      48.710  18.043  18.186  0.00  0.00    +0.036 A 
ATOM     20  C   UNL     1      50.643  17.716  19.716  0.00  0.00    +0.096 C 
ATOM     21  C   UNL     1      50.818  16.358  19.011  0.00  0.00    +0.245 C 
ATOM     22  N   UNL     1      52.238  16.189  18.706  0.00  0.00    -0.530 NA
ATOM     23  C   UNL     1      53.075  16.658  19.817  0.00  0.00    +0.185 C 
ATOM     24  C   UNL     1      52.548  14.798  18.363  0.00  0.00    +0.219 C 
ATOM     25  C   UNL     1      52.452  13.961  19.648  0.00  0.00    +0.046 C 
ATOM     26  C   UNL     1      51.083  14.158  20.237  0.00  0.00    -0.046 A 
ATOM     27  C   UNL     1      50.591  13.196  21.109  0.00  0.00    -0.079 A 
ATOM     28  C   UNL     1      49.321  13.323  21.649  0.00  0.00    +0.075 A 
ATOM     31  C   UNL     1      48.541  14.423  21.302  0.00  0.00    +0.056 A 
ATOM     34  C   UNL     1      49.029  15.388  20.444  0.00  0.00    +0.132 A 
ATOM     35  O   UNL     1      48.349  16.474  20.062  0.00  0.00    -0.230 OA
ATOM     36  C   UNL     1      47.051  16.749  20.210  0.00  0.00    +0.105 A 
ATOM     37  C   UNL     1      46.172  16.585  19.145  0.00  0.00    +0.009 A 
ATOM     38  C   UNL     1      44.870  17.025  19.247  0.00  0.00    +0.033 A 
ATOM     39  C   UNL     1      44.437  17.640  20.404  0.00  0.00    -0.065 A 
ATOM     40  C   UNL     1      45.271  17.703  21.509  0.00  0.00    -0.004 A 
ATOM     41  C   UNL     1      43.040  18.208  20.473  0.00  0.00    +0.095 C 
ATOM     42  C   UNL     1      46.573  17.261  21.415  0.00  0.00    +0.021 A 
ATOM     43  C   UNL     1      50.328  15.264  19.917  0.00  0.00    -0.144 A 
ATOM     44  C   UNL     1      47.433  18.483  17.921  0.00  0.00    +0.004 A 
ATOM     45  C   UNL     1      43.333  20.357  19.258  0.00  0.00    -0.125 A 
ATOM     46  C   UNL     1      42.737  18.978  19.193  0.00  0.00    +0.241 C 
ENDROOT
BRANCH   7   8
ATOM      8  O   UNL     1      45.110  24.081  19.535  0.00  0.00    -0.303 OA
ATOM      9  C   UNL     1      44.557  25.134  18.746  0.00  0.00    +0.237 C 
ENDBRANCH   7   8
BRANCH  10  11
ATOM     11  O   UNL     1      46.613  21.897  18.795  0.00  0.00    -0.494 OA
ATOM     12  H   UNL     1      47.214  21.024  18.501  0.00  0.00    +0.417 HD
ENDBRANCH  10  11
BRANCH  28  29
ATOM     29  O   UNL     1      48.839  12.382  22.505  0.00  0.00    -0.323 OA
ATOM     30  C   UNL     1      49.210  11.025  22.253  0.00  0.00    +0.249 C 
ENDBRANCH  28  29
BRANCH  31  32
ATOM     32  O   UNL     1      47.287  14.551  21.816  0.00  0.00    -0.499 OA
ATOM     33  H   UNL     1      46.775  13.675  22.239  0.00  0.00    +0.433 HD
ENDBRANCH  31  32
TORSDOF 4
ENDMDL
