MODEL 1
REMARK VINA RESULT:      -6.5      0.000      0.000
REMARK  Name = ZINC14641685
REMARK  14 active torsions:
REMARK  status: ('A' for Active; 'I' for Inactive)
REMARK    1  A    between atoms: C1_1  and  C2_2
REMARK    2  A    between atoms: C2_2  and  C25_33
REMARK    3  A    between atoms: C3_3  and  C4_4
REMARK    4  A    between atoms: C4_4  and  C5_5
REMARK    5  A    between atoms: C6_6  and  O7_32
REMARK    6  A    between atoms: C7_7  and  C20_27
REMARK    7  A    between atoms: C10_10  and  O1_11
REMARK    8  A    between atoms: C13_15  and  C14_18
REMARK    9  A    between atoms: C15_19  and  O6_26
REMARK   10  A    between atoms: C17_21  and  O5_25
REMARK   11  A    between atoms: C19_23  and  O4_24
REMARK   12  A    between atoms: C20_27  and  C21_28
REMARK   13  A    between atoms: C22_29  and  C23_30
REMARK   14  A    between atoms: C22_29  and  C24_31
REMARK                            x       y       z     vdW  Elec       q    Type
REMARK                         _______ _______ _______ _____ _____    ______ ____
ROOT
ATOM      6  C   UNL     1      49.910  19.227  19.153  0.00  0.00    -0.171 A 
ATOM      7  C   UNL     1      49.514  19.997  20.240  0.00  0.00    +0.197 A 
ATOM     10  C   UNL     1      48.178  20.062  20.614  0.00  0.00    -0.151 A 
ATOM     16  C   UNL     1      47.221  19.359  19.905  0.00  0.00    +0.216 A 
ATOM     17  C   UNL     1      47.616  18.583  18.799  0.00  0.00    -0.285 A 
ATOM     18  C   UNL     1      46.596  17.851  18.041  0.00  0.00    +0.400 C 
ATOM     19  C   UNL     1      45.219  17.753  18.673  0.00  0.00    +0.033 C 
ATOM     20  C   UNL     1      44.915  19.115  19.313  0.00  0.00    +0.254 C 
ATOM     33  O   UNL     1      46.840  17.349  16.963  0.00  0.00    -0.427 OA
ATOM     34  O   UNL     1      45.921  19.419  20.279  0.00  0.00    -0.293 OA
ATOM     35  C   UNL     1      48.968  18.521  18.426  0.00  0.00    +0.220 A 
ENDROOT
BRANCH  20  21
ATOM     21  C   UNL     1      43.569  19.066  19.988  0.00  0.00    -0.160 A 
ATOM     22  C   UNL     1      42.486  19.721  19.423  0.00  0.00    +0.173 A 
ATOM     25  C   UNL     1      41.246  19.672  20.043  0.00  0.00    -0.042 A 
ATOM     26  C   UNL     1      41.093  18.977  21.234  0.00  0.00    +0.154 A 
ATOM     29  C   UNL     1      42.178  18.326  21.801  0.00  0.00    -0.038 A 
ATOM     30  C   UNL     1      43.416  18.371  21.180  0.00  0.00    +0.163 A 
BRANCH  22  23
ATOM     23  O   UNL     1      42.637  20.406  18.260  0.00  0.00    -0.486 OA
ATOM     24  H   UNL     1      41.913  20.279  17.631  0.00  0.00    +0.399 HD
ENDBRANCH  22  23
BRANCH  26  27
ATOM     27  O   UNL     1      39.879  18.932  21.842  0.00  0.00    -0.493 OA
ATOM     28  H   UNL     1      39.428  18.081  21.758  0.00  0.00    +0.399 HD
ENDBRANCH  26  27
BRANCH  30  31
ATOM     31  O   UNL     1      44.479  17.734  21.736  0.00  0.00    -0.490 OA
ATOM     32  H   UNL     1      44.371  17.537  22.677  0.00  0.00    +0.398 HD
ENDBRANCH  30  31
ENDBRANCH  20  21
BRANCH   7   8
ATOM      8  O   UNL     1      50.442  20.693  20.943  0.00  0.00    -0.482 OA
ATOM      9  H   UNL     1      50.080  21.437  21.445  0.00  0.00    +0.398 HD
ENDBRANCH   7   8
BRANCH  35  36
ATOM     36  O   UNL     1      49.349  17.770  17.363  0.00  0.00    -0.472 OA
ATOM     37  H   UNL     1      50.158  18.079  16.931  0.00  0.00    +0.397 HD
ENDBRANCH  35  36
BRANCH   6   5
ATOM      5  C   UNL     1      51.364  19.164  18.763  0.00  0.00    +0.128 C 
BRANCH   5   4
ATOM      1  C   UNL     1      52.428  21.156  15.660  0.00  0.00    +0.072 C 
ATOM      2  C   UNL     1      51.985  20.040  16.571  0.00  0.00    -0.131 C 
ATOM      3  C   UNL     1      51.892  18.631  16.045  0.00  0.00    +0.075 C 
ATOM      4  C   UNL     1      51.680  20.295  17.819  0.00  0.00    -0.050 C 
ENDBRANCH   5   4
ENDBRANCH   6   5
BRANCH  10  11
ATOM     11  C   UNL     1      47.769  20.902  21.797  0.00  0.00    +0.133 C 
BRANCH  11  12
ATOM     12  C   UNL     1      47.340  22.266  21.320  0.00  0.00    -0.062 C 
ATOM     13  C   UNL     1      46.127  22.695  21.569  0.00  0.00    -0.119 C 
ATOM     14  C   UNL     1      45.655  24.000  20.984  0.00  0.00    +0.071 C 
ATOM     15  C   UNL     1      45.204  21.882  22.439  0.00  0.00    +0.073 C 
ENDBRANCH  11  12
ENDBRANCH  10  11
TORSDOF 10
ENDMDL
MODEL 2
REMARK VINA RESULT:      -6.2      4.095      8.314
REMARK  Name = ZINC14641685
REMARK  14 active torsions:
REMARK  status: ('A' for Active; 'I' for Inactive)
REMARK    1  A    between atoms: C1_1  and  C2_2
REMARK    2  A    between atoms: C2_2  and  C25_33
REMARK    3  A    between atoms: C3_3  and  C4_4
REMARK    4  A    between atoms: C4_4  and  C5_5
REMARK    5  A    between atoms: C6_6  and  O7_32
REMARK    6  A    between atoms: C7_7  and  C20_27
REMARK    7  A    between atoms: C10_10  and  O1_11
REMARK    8  A    between atoms: C13_15  and  C14_18
REMARK    9  A    between atoms: C15_19  and  O6_26
REMARK   10  A    between atoms: C17_21  and  O5_25
REMARK   11  A    between atoms: C19_23  and  O4_24
REMARK   12  A    between atoms: C20_27  and  C21_28
REMARK   13  A    between atoms: C22_29  and  C23_30
REMARK   14  A    between atoms: C22_29  and  C24_31
REMARK                            x       y       z     vdW  Elec       q    Type
REMARK                         _______ _______ _______ _____ _____    ______ ____
ROOT
ATOM      6  C   UNL     1      45.792  17.602  19.718  0.00  0.00    -0.171 A 
ATOM      7  C   UNL     1      46.867  18.022  18.944  0.00  0.00    +0.197 A 
ATOM     10  C   UNL     1      47.562  17.122  18.147  0.00  0.00    -0.151 A 
ATOM     16  C   UNL     1      47.189  15.790  18.113  0.00  0.00    +0.216 A 
ATOM     17  C   UNL     1      46.105  15.358  18.900  0.00  0.00    -0.285 A 
ATOM     18  C   UNL     1      45.724  13.942  18.873  0.00  0.00    +0.400 C 
ATOM     19  C   UNL     1      46.346  13.092  17.781  0.00  0.00    +0.033 C 
ATOM     20  C   UNL     1      47.812  13.527  17.644  0.00  0.00    +0.254 C 
ATOM     33  O   UNL     1      44.951  13.474  19.684  0.00  0.00    -0.427 OA
ATOM     34  O   UNL     1      47.864  14.918  17.328  0.00  0.00    -0.293 OA
ATOM     35  C   UNL     1      45.407  16.273  19.705  0.00  0.00    +0.220 A 
ENDROOT
BRANCH  20  21
ATOM     21  C   UNL     1      48.472  12.737  16.545  0.00  0.00    -0.160 A 
ATOM     22  C   UNL     1      48.133  12.972  15.222  0.00  0.00    +0.173 A 
ATOM     25  C   UNL     1      48.744  12.246  14.210  0.00  0.00    -0.042 A 
ATOM     26  C   UNL     1      49.688  11.278  14.523  0.00  0.00    +0.154 A 
ATOM     29  C   UNL     1      50.023  11.040  15.847  0.00  0.00    -0.038 A 
ATOM     30  C   UNL     1      49.415  11.768  16.858  0.00  0.00    +0.163 A 
BRANCH  22  23
ATOM     23  O   UNL     1      47.205  13.916  14.915  0.00  0.00    -0.486 OA
ATOM     24  H   UNL     1      47.306  14.742  15.408  0.00  0.00    +0.399 HD
ENDBRANCH  22  23
BRANCH  26  27
ATOM     27  O   UNL     1      50.283  10.565  13.532  0.00  0.00    -0.493 OA
ATOM     28  H   UNL     1      49.668  10.223  12.869  0.00  0.00    +0.399 HD
ENDBRANCH  26  27
BRANCH  30  31
ATOM     31  O   UNL     1      49.744  11.534  18.156  0.00  0.00    -0.490 OA
ATOM     32  H   UNL     1      50.617  11.137  18.274  0.00  0.00    +0.398 HD
ENDBRANCH  30  31
ENDBRANCH  20  21
BRANCH   7   8
ATOM      8  O   UNL     1      47.243  19.325  18.969  0.00  0.00    -0.482 OA
ATOM      9  H   UNL     1      46.555  19.928  19.284  0.00  0.00    +0.398 HD
ENDBRANCH   7   8
BRANCH  35  36
ATOM     36  O   UNL     1      44.360  15.858  20.459  0.00  0.00    -0.472 OA
ATOM     37  H   UNL     1      44.576  15.148  21.078  0.00  0.00    +0.397 HD
ENDBRANCH  35  36
BRANCH   6   5
ATOM      5  C   UNL     1      45.047  18.593  20.575  0.00  0.00    +0.128 C 
BRANCH   5   4
ATOM      1  C   UNL     1      41.454  19.435  19.518  0.00  0.00    +0.072 C 
ATOM      2  C   UNL     1      42.658  19.027  20.330  0.00  0.00    -0.131 C 
ATOM      3  C   UNL     1      42.478  18.512  21.736  0.00  0.00    +0.075 C 
ATOM      4  C   UNL     1      43.858  19.121  19.815  0.00  0.00    -0.050 C 
ENDBRANCH   5   4
ENDBRANCH   6   5
BRANCH  10  11
ATOM     11  C   UNL     1      48.725  17.598  17.314  0.00  0.00    +0.133 C 
BRANCH  11  12
ATOM     12  C   UNL     1      49.971  17.622  18.160  0.00  0.00    -0.062 C 
ATOM     13  C   UNL     1      51.106  18.024  17.643  0.00  0.00    -0.119 C 
ATOM     14  C   UNL     1      52.376  17.928  18.446  0.00  0.00    +0.071 C 
ATOM     15  C   UNL     1      51.140  18.583  16.243  0.00  0.00    +0.073 C 
ENDBRANCH  11  12
ENDBRANCH  10  11
TORSDOF 10
ENDMDL
MODEL 3
REMARK VINA RESULT:      -6.0      1.902      4.417
REMARK  Name = ZINC14641685
REMARK  14 active torsions:
REMARK  status: ('A' for Active; 'I' for Inactive)
REMARK    1  A    between atoms: C1_1  and  C2_2
REMARK    2  A    between atoms: C2_2  and  C25_33
REMARK    3  A    between atoms: C3_3  and  C4_4
REMARK    4  A    between atoms: C4_4  and  C5_5
REMARK    5  A    between atoms: C6_6  and  O7_32
REMARK    6  A    between atoms: C7_7  and  C20_27
REMARK    7  A    between atoms: C10_10  and  O1_11
REMARK    8  A    between atoms: C13_15  and  C14_18
REMARK    9  A    between atoms: C15_19  and  O6_26
REMARK   10  A    between atoms: C17_21  and  O5_25
REMARK   11  A    between atoms: C19_23  and  O4_24
REMARK   12  A    between atoms: C20_27  and  C21_28
REMARK   13  A    between atoms: C22_29  and  C23_30
REMARK   14  A    between atoms: C22_29  and  C24_31
REMARK                            x       y       z     vdW  Elec       q    Type
REMARK                         _______ _______ _______ _____ _____    ______ ____
ROOT
ATOM      6  C   UNL     1      49.262  19.020  19.294  0.00  0.00    -0.171 A 
ATOM      7  C   UNL     1      48.430  18.130  18.626  0.00  0.00    +0.197 A 
ATOM     10  C   UNL     1      47.062  18.357  18.551  0.00  0.00    -0.151 A 
ATOM     16  C   UNL     1      46.508  19.477  19.144  0.00  0.00    +0.216 A 
ATOM     17  C   UNL     1      47.346  20.379  19.828  0.00  0.00    -0.285 A 
ATOM     18  C   UNL     1      46.752  21.557  20.469  0.00  0.00    +0.400 C 
ATOM     19  C   UNL     1      45.312  21.873  20.108  0.00  0.00    +0.033 C 
ATOM     20  C   UNL     1      44.558  20.538  20.036  0.00  0.00    +0.254 C 
ATOM     33  O   UNL     1      47.381  22.244  21.248  0.00  0.00    -0.427 OA
ATOM     34  O   UNL     1      45.175  19.698  19.061  0.00  0.00    -0.293 OA
ATOM     35  C   UNL     1      48.728  20.143  19.901  0.00  0.00    +0.220 A 
ENDROOT
BRANCH  20  21
ATOM     21  C   UNL     1      43.124  20.790  19.646  0.00  0.00    -0.160 A 
ATOM     22  C   UNL     1      42.175  19.794  19.817  0.00  0.00    +0.173 A 
ATOM     25  C   UNL     1      40.854  20.027  19.461  0.00  0.00    -0.042 A 
ATOM     26  C   UNL     1      40.486  21.253  18.926  0.00  0.00    +0.154 A 
ATOM     29  C   UNL     1      41.437  22.247  18.750  0.00  0.00    -0.038 A 
ATOM     30  C   UNL     1      42.756  22.015  19.109  0.00  0.00    +0.163 A 
BRANCH  22  23
ATOM     23  O   UNL     1      42.536  18.592  20.336  0.00  0.00    -0.486 OA
ATOM     24  H   UNL     1      43.334  18.215  19.939  0.00  0.00    +0.399 HD
ENDBRANCH  22  23
BRANCH  26  27
ATOM     27  O   UNL     1      39.193  21.479  18.574  0.00  0.00    -0.493 OA
ATOM     28  H   UNL     1      38.964  22.416  18.501  0.00  0.00    +0.399 HD
ENDBRANCH  26  27
BRANCH  30  31
ATOM     31  O   UNL     1      43.688  22.989  18.937  0.00  0.00    -0.490 OA
ATOM     32  H   UNL     1      44.372  22.768  18.291  0.00  0.00    +0.398 HD
ENDBRANCH  30  31
ENDBRANCH  20  21
BRANCH   7   8
ATOM      8  O   UNL     1      48.960  17.026  18.042  0.00  0.00    -0.482 OA
ATOM      9  H   UNL     1      48.938  17.043  17.075  0.00  0.00    +0.398 HD
ENDBRANCH   7   8
BRANCH  35  36
ATOM     36  O   UNL     1      49.535  21.014  20.555  0.00  0.00    -0.472 OA
ATOM     37  H   UNL     1      50.476  20.901  20.363  0.00  0.00    +0.397 HD
ENDBRANCH  35  36
BRANCH   6   5
ATOM      5  C   UNL     1      50.744  18.760  19.363  0.00  0.00    +0.128 C 
BRANCH   5   4
ATOM      1  C   UNL     1      52.256  19.728  15.970  0.00  0.00    +0.072 C 
ATOM      2  C   UNL     1      51.812  19.764  17.410  0.00  0.00    -0.131 C 
ATOM      3  C   UNL     1      51.949  21.034  18.209  0.00  0.00    +0.075 C 
ATOM      4  C   UNL     1      51.308  18.691  17.967  0.00  0.00    -0.050 C 
ENDBRANCH   5   4
ENDBRANCH   6   5
BRANCH  10  11
ATOM     11  C   UNL     1      46.177  17.379  17.820  0.00  0.00    +0.133 C 
BRANCH  11  12
ATOM     12  C   UNL     1      45.761  16.278  18.762  0.00  0.00    -0.062 C 
ATOM     13  C   UNL     1      45.971  15.026  18.438  0.00  0.00    -0.119 C 
ATOM     14  C   UNL     1      45.442  13.922  19.315  0.00  0.00    +0.071 C 
ATOM     15  C   UNL     1      46.740  14.691  17.186  0.00  0.00    +0.073 C 
ENDBRANCH  11  12
ENDBRANCH  10  11
TORSDOF 10
ENDMDL
MODEL 4
REMARK VINA RESULT:      -5.9      3.011      5.954
REMARK  Name = ZINC14641685
REMARK  14 active torsions:
REMARK  status: ('A' for Active; 'I' for Inactive)
REMARK    1  A    between atoms: C1_1  and  C2_2
REMARK    2  A    between atoms: C2_2  and  C25_33
REMARK    3  A    between atoms: C3_3  and  C4_4
REMARK    4  A    between atoms: C4_4  and  C5_5
REMARK    5  A    between atoms: C6_6  and  O7_32
REMARK    6  A    between atoms: C7_7  and  C20_27
REMARK    7  A    between atoms: C10_10  and  O1_11
REMARK    8  A    between atoms: C13_15  and  C14_18
REMARK    9  A    between atoms: C15_19  and  O6_26
REMARK   10  A    between atoms: C17_21  and  O5_25
REMARK   11  A    between atoms: C19_23  and  O4_24
REMARK   12  A    between atoms: C20_27  and  C21_28
REMARK   13  A    between atoms: C22_29  and  C23_30
REMARK   14  A    between atoms: C22_29  and  C24_31
REMARK                            x       y       z     vdW  Elec       q    Type
REMARK                         _______ _______ _______ _____ _____    ______ ____
ROOT
ATOM      6  C   UNL     1      46.725  14.967  19.669  0.00  0.00    -0.171 A 
ATOM      7  C   UNL     1      47.598  15.806  18.987  0.00  0.00    +0.197 A 
ATOM     10  C   UNL     1      47.467  17.186  19.072  0.00  0.00    -0.151 A 
ATOM     16  C   UNL     1      46.459  17.744  19.838  0.00  0.00    +0.216 A 
ATOM     17  C   UNL     1      45.568  16.898  20.525  0.00  0.00    -0.285 A 
ATOM     18  C   UNL     1      44.492  17.494  21.323  0.00  0.00    +0.400 C 
ATOM     19  C   UNL     1      44.586  18.987  21.585  0.00  0.00    +0.033 C 
ATOM     20  C   UNL     1      45.077  19.645  20.287  0.00  0.00    +0.254 C 
ATOM     33  O   UNL     1      43.573  16.828  21.754  0.00  0.00    -0.427 OA
ATOM     34  O   UNL     1      46.340  19.090  19.924  0.00  0.00    -0.293 OA
ATOM     35  C   UNL     1      45.705  15.504  20.435  0.00  0.00    +0.220 A 
ENDROOT
BRANCH  20  21
ATOM     21  C   UNL     1      45.222  21.129  20.499  0.00  0.00    -0.160 A 
ATOM     22  C   UNL     1      46.239  21.618  21.305  0.00  0.00    +0.173 A 
ATOM     25  C   UNL     1      46.375  22.985  21.498  0.00  0.00    -0.042 A 
ATOM     26  C   UNL     1      45.488  23.862  20.891  0.00  0.00    +0.154 A 
ATOM     29  C   UNL     1      44.468  23.373  20.088  0.00  0.00    -0.038 A 
ATOM     30  C   UNL     1      44.335  22.007  19.893  0.00  0.00    +0.163 A 
BRANCH  22  23
ATOM     23  O   UNL     1      47.104  20.759  21.904  0.00  0.00    -0.486 OA
ATOM     24  H   UNL     1      46.787  19.846  21.947  0.00  0.00    +0.399 HD
ENDBRANCH  22  23
BRANCH  26  27
ATOM     27  O   UNL     1      45.619  25.201  21.082  0.00  0.00    -0.493 OA
ATOM     28  H   UNL     1      45.734  25.705  20.264  0.00  0.00    +0.399 HD
ENDBRANCH  26  27
BRANCH  30  31
ATOM     31  O   UNL     1      43.335  21.527  19.107  0.00  0.00    -0.490 OA
ATOM     32  H   UNL     1      42.684  20.993  19.582  0.00  0.00    +0.398 HD
ENDBRANCH  30  31
ENDBRANCH  20  21
BRANCH   7   8
ATOM      8  O   UNL     1      48.589  15.271  18.231  0.00  0.00    -0.482 OA
ATOM      9  H   UNL     1      49.142  15.928  17.785  0.00  0.00    +0.398 HD
ENDBRANCH   7   8
BRANCH  35  36
ATOM     36  O   UNL     1      44.850  14.689  21.100  0.00  0.00    -0.472 OA
ATOM     37  H   UNL     1      44.222  14.225  20.529  0.00  0.00    +0.397 HD
ENDBRANCH  35  36
BRANCH   6   5
ATOM      5  C   UNL     1      46.884  13.472  19.569  0.00  0.00    +0.128 C 
BRANCH   5   4
ATOM      1  C   UNL     1      45.736  11.558  16.446  0.00  0.00    +0.072 C 
ATOM      2  C   UNL     1      46.510  11.989  17.666  0.00  0.00    -0.131 C 
ATOM      3  C   UNL     1      47.810  11.309  18.013  0.00  0.00    +0.075 C 
ATOM      4  C   UNL     1      46.051  12.953  18.426  0.00  0.00    -0.050 C 
ENDBRANCH   5   4
ENDBRANCH   6   5
BRANCH  10  11
ATOM     11  C   UNL     1      48.425  18.079  18.326  0.00  0.00    +0.133 C 
BRANCH  11  12
ATOM     12  C   UNL     1      49.631  18.352  19.188  0.00  0.00    -0.062 C 
ATOM     13  C   UNL     1      50.007  19.587  19.415  0.00  0.00    -0.119 C 
ATOM     14  C   UNL     1      51.282  19.860  20.168  0.00  0.00    +0.071 C 
ATOM     15  C   UNL     1      49.163  20.734  18.922  0.00  0.00    +0.073 C 
ENDBRANCH  11  12
ENDBRANCH  10  11
TORSDOF 10
ENDMDL
MODEL 5
REMARK VINA RESULT:      -5.8      2.930      5.379
REMARK  Name = ZINC14641685
REMARK  14 active torsions:
REMARK  status: ('A' for Active; 'I' for Inactive)
REMARK    1  A    between atoms: C1_1  and  C2_2
REMARK    2  A    between atoms: C2_2  and  C25_33
REMARK    3  A    between atoms: C3_3  and  C4_4
REMARK    4  A    between atoms: C4_4  and  C5_5
REMARK    5  A    between atoms: C6_6  and  O7_32
REMARK    6  A    between atoms: C7_7  and  C20_27
REMARK    7  A    between atoms: C10_10  and  O1_11
REMARK    8  A    between atoms: C13_15  and  C14_18
REMARK    9  A    between atoms: C15_19  and  O6_26
REMARK   10  A    between atoms: C17_21  and  O5_25
REMARK   11  A    between atoms: C19_23  and  O4_24
REMARK   12  A    between atoms: C20_27  and  C21_28
REMARK   13  A    between atoms: C22_29  and  C23_30
REMARK   14  A    between atoms: C22_29  and  C24_31
REMARK                            x       y       z     vdW  Elec       q    Type
REMARK                         _______ _______ _______ _____ _____    ______ ____
ROOT
ATOM      6  C   UNL     1      48.288  15.263  18.231  0.00  0.00    -0.171 A 
ATOM      7  C   UNL     1      49.067  16.338  17.820  0.00  0.00    +0.197 A 
ATOM     10  C   UNL     1      48.707  17.640  18.143  0.00  0.00    -0.151 A 
ATOM     16  C   UNL     1      47.562  17.883  18.881  0.00  0.00    +0.216 A 
ATOM     17  C   UNL     1      46.766  16.798  19.293  0.00  0.00    -0.285 A 
ATOM     18  C   UNL     1      45.545  17.062  20.062  0.00  0.00    +0.400 C 
ATOM     19  C   UNL     1      45.374  18.469  20.604  0.00  0.00    +0.033 C 
ATOM     20  C   UNL     1      45.857  19.438  19.515  0.00  0.00    +0.254 C 
ATOM     33  O   UNL     1      44.713  16.198  20.254  0.00  0.00    -0.427 OA
ATOM     34  O   UNL     1      47.220  19.153  19.200  0.00  0.00    -0.293 OA
ATOM     35  C   UNL     1      47.135  15.484  18.963  0.00  0.00    +0.220 A 
ENDROOT
BRANCH  20  21
ATOM     21  C   UNL     1      45.742  20.855  20.013  0.00  0.00    -0.160 A 
ATOM     22  C   UNL     1      46.693  21.363  20.884  0.00  0.00    +0.173 A 
ATOM     25  C   UNL     1      46.589  22.669  21.340  0.00  0.00    -0.042 A 
ATOM     26  C   UNL     1      45.527  23.463  20.931  0.00  0.00    +0.154 A 
ATOM     29  C   UNL     1      44.573  22.953  20.064  0.00  0.00    -0.038 A 
ATOM     30  C   UNL     1      44.679  21.649  19.605  0.00  0.00    +0.163 A 
BRANCH  22  23
ATOM     23  O   UNL     1      47.730  20.584  21.288  0.00  0.00    -0.486 OA
ATOM     24  H   UNL     1      48.267  20.236  20.563  0.00  0.00    +0.399 HD
ENDBRANCH  22  23
BRANCH  26  27
ATOM     27  O   UNL     1      45.423  24.741  21.381  0.00  0.00    -0.493 OA
ATOM     28  H   UNL     1      45.142  25.374  20.705  0.00  0.00    +0.399 HD
ENDBRANCH  26  27
BRANCH  30  31
ATOM     31  O   UNL     1      43.744  21.149  18.756  0.00  0.00    -0.490 OA
ATOM     32  H   UNL     1      43.721  21.588  17.895  0.00  0.00    +0.398 HD
ENDBRANCH  30  31
ENDBRANCH  20  21
BRANCH   7   8
ATOM      8  O   UNL     1      50.192  16.113  17.095  0.00  0.00    -0.482 OA
ATOM      9  H   UNL     1      50.661  15.303  17.337  0.00  0.00    +0.398 HD
ENDBRANCH   7   8
BRANCH  35  36
ATOM     36  O   UNL     1      46.371  14.439  19.365  0.00  0.00    -0.472 OA
ATOM     37  H   UNL     1      46.308  13.724  18.716  0.00  0.00    +0.397 HD
ENDBRANCH  35  36
BRANCH   6   5
ATOM      5  C   UNL     1      48.696  13.857  17.875  0.00  0.00    +0.128 C 
BRANCH   5   4
ATOM      1  C   UNL     1      48.089  12.752  14.250  0.00  0.00    +0.072 C 
ATOM      2  C   UNL     1      48.745  13.036  15.577  0.00  0.00    -0.131 C 
ATOM      3  C   UNL     1      50.231  12.841  15.739  0.00  0.00    +0.075 C 
ATOM      4  C   UNL     1      48.024  13.449  16.589  0.00  0.00    -0.050 C 
ENDBRANCH   5   4
ENDBRANCH   6   5
BRANCH  10  11
ATOM     11  C   UNL     1      49.567  18.792  17.690  0.00  0.00    +0.133 C 
BRANCH  11  12
ATOM     12  C   UNL     1      50.418  19.267  18.839  0.00  0.00    -0.062 C 
ATOM     13  C   UNL     1      51.170  20.331  18.701  0.00  0.00    -0.119 C 
ATOM     14  C   UNL     1      52.117  20.732  19.801  0.00  0.00    +0.071 C 
ATOM     15  C   UNL     1      51.090  21.152  17.440  0.00  0.00    +0.073 C 
ENDBRANCH  11  12
ENDBRANCH  10  11
TORSDOF 10
ENDMDL
MODEL 6
REMARK VINA RESULT:      -5.6      2.929      4.689
REMARK  Name = ZINC14641685
REMARK  14 active torsions:
REMARK  status: ('A' for Active; 'I' for Inactive)
REMARK    1  A    between atoms: C1_1  and  C2_2
REMARK    2  A    between atoms: C2_2  and  C25_33
REMARK    3  A    between atoms: C3_3  and  C4_4
REMARK    4  A    between atoms: C4_4  and  C5_5
REMARK    5  A    between atoms: C6_6  and  O7_32
REMARK    6  A    between atoms: C7_7  and  C20_27
REMARK    7  A    between atoms: C10_10  and  O1_11
REMARK    8  A    between atoms: C13_15  and  C14_18
REMARK    9  A    between atoms: C15_19  and  O6_26
REMARK   10  A    between atoms: C17_21  and  O5_25
REMARK   11  A    between atoms: C19_23  and  O4_24
REMARK   12  A    between atoms: C20_27  and  C21_28
REMARK   13  A    between atoms: C22_29  and  C23_30
REMARK   14  A    between atoms: C22_29  and  C24_31
REMARK                            x       y       z     vdW  Elec       q    Type
REMARK                         _______ _______ _______ _____ _____    ______ ____
ROOT
ATOM      6  C   UNL     1      49.647  15.273  18.323  0.00  0.00    -0.171 A 
ATOM      7  C   UNL     1      50.317  16.479  18.491  0.00  0.00    +0.197 A 
ATOM     10  C   UNL     1      49.641  17.612  18.923  0.00  0.00    -0.151 A 
ATOM     16  C   UNL     1      48.285  17.554  19.190  0.00  0.00    +0.216 A 
ATOM     17  C   UNL     1      47.600  16.337  19.014  0.00  0.00    -0.285 A 
ATOM     18  C   UNL     1      46.159  16.284  19.284  0.00  0.00    +0.400 C 
ATOM     19  C   UNL     1      45.560  17.476  20.008  0.00  0.00    +0.033 C 
ATOM     20  C   UNL     1      46.219  18.737  19.431  0.00  0.00    +0.254 C 
ATOM     33  O   UNL     1      45.481  15.336  18.946  0.00  0.00    -0.427 OA
ATOM     34  O   UNL     1      47.631  18.660  19.618  0.00  0.00    -0.293 OA
ATOM     35  C   UNL     1      48.289  15.195  18.578  0.00  0.00    +0.220 A 
ENDROOT
BRANCH  20  21
ATOM     21  C   UNL     1      45.684  19.955  20.140  0.00  0.00    -0.160 A 
ATOM     22  C   UNL     1      44.655  20.690  19.572  0.00  0.00    +0.173 A 
ATOM     25  C   UNL     1      44.160  21.809  20.226  0.00  0.00    -0.042 A 
ATOM     26  C   UNL     1      44.702  22.197  21.443  0.00  0.00    +0.154 A 
ATOM     29  C   UNL     1      45.734  21.464  22.008  0.00  0.00    -0.038 A 
ATOM     30  C   UNL     1      46.226  20.343  21.356  0.00  0.00    +0.163 A 
BRANCH  22  23
ATOM     23  O   UNL     1      44.128  20.314  18.378  0.00  0.00    -0.486 OA
ATOM     24  H   UNL     1      43.458  19.619  18.445  0.00  0.00    +0.399 HD
ENDBRANCH  22  23
BRANCH  26  27
ATOM     27  O   UNL     1      44.219  23.295  22.082  0.00  0.00    -0.493 OA
ATOM     28  H   UNL     1      43.911  23.992  21.487  0.00  0.00    +0.399 HD
ENDBRANCH  26  27
BRANCH  30  31
ATOM     31  O   UNL     1      47.238  19.625  21.909  0.00  0.00    -0.490 OA
ATOM     32  H   UNL     1      47.318  19.732  22.867  0.00  0.00    +0.398 HD
ENDBRANCH  30  31
ENDBRANCH  20  21
BRANCH   7   8
ATOM      8  O   UNL     1      51.647  16.549  18.230  0.00  0.00    -0.482 OA
ATOM      9  H   UNL     1      51.879  17.179  17.534  0.00  0.00    +0.398 HD
ENDBRANCH   7   8
BRANCH  35  36
ATOM     36  O   UNL     1      47.631  14.021  18.413  0.00  0.00    -0.472 OA
ATOM     37  H   UNL     1      47.014  13.811  19.127  0.00  0.00    +0.397 HD
ENDBRANCH  35  36
BRANCH   6   5
ATOM      5  C   UNL     1      50.397  14.052  17.858  0.00  0.00    +0.128 C 
BRANCH   5   4
ATOM      1  C   UNL     1      51.530  13.333  14.261  0.00  0.00    +0.072 C 
ATOM      2  C   UNL     1      51.304  13.224  15.748  0.00  0.00    -0.131 C 
ATOM      3  C   UNL     1      51.979  12.128  16.534  0.00  0.00    +0.075 C 
ATOM      4  C   UNL     1      50.521  14.080  16.356  0.00  0.00    -0.050 C 
ENDBRANCH   5   4
ENDBRANCH   6   5
BRANCH  10  11
ATOM     11  C   UNL     1      50.386  18.911  19.100  0.00  0.00    +0.133 C 
BRANCH  11  12
ATOM     12  C   UNL     1      50.692  19.503  17.749  0.00  0.00    -0.062 C 
ATOM     13  C   UNL     1      51.300  20.661  17.664  0.00  0.00    -0.119 C 
ATOM     14  C   UNL     1      51.492  21.314  16.320  0.00  0.00    +0.071 C 
ATOM     15  C   UNL     1      51.806  21.339  18.911  0.00  0.00    +0.073 C 
ENDBRANCH  11  12
ENDBRANCH  10  11
TORSDOF 10
ENDMDL
MODEL 7
REMARK VINA RESULT:      -5.6      3.372      5.312
REMARK  Name = ZINC14641685
REMARK  14 active torsions:
REMARK  status: ('A' for Active; 'I' for Inactive)
REMARK    1  A    between atoms: C1_1  and  C2_2
REMARK    2  A    between atoms: C2_2  and  C25_33
REMARK    3  A    between atoms: C3_3  and  C4_4
REMARK    4  A    between atoms: C4_4  and  C5_5
REMARK    5  A    between atoms: C6_6  and  O7_32
REMARK    6  A    between atoms: C7_7  and  C20_27
REMARK    7  A    between atoms: C10_10  and  O1_11
REMARK    8  A    between atoms: C13_15  and  C14_18
REMARK    9  A    between atoms: C15_19  and  O6_26
REMARK   10  A    between atoms: C17_21  and  O5_25
REMARK   11  A    between atoms: C19_23  and  O4_24
REMARK   12  A    between atoms: C20_27  and  C21_28
REMARK   13  A    between atoms: C22_29  and  C23_30
REMARK   14  A    between atoms: C22_29  and  C24_31
REMARK                            x       y       z     vdW  Elec       q    Type
REMARK                         _______ _______ _______ _____ _____    ______ ____
ROOT
ATOM      6  C   UNL     1      50.349  14.988  16.876  0.00  0.00    -0.171 A 
ATOM      7  C   UNL     1      50.887  16.195  17.304  0.00  0.00    +0.197 A 
ATOM     10  C   UNL     1      50.100  17.126  17.971  0.00  0.00    -0.151 A 
ATOM     16  C   UNL     1      48.765  16.860  18.216  0.00  0.00    +0.216 A 
ATOM     17  C   UNL     1      48.213  15.642  17.778  0.00  0.00    -0.285 A 
ATOM     18  C   UNL     1      46.794  15.371  18.027  0.00  0.00    +0.400 C 
ATOM     19  C   UNL     1      46.083  16.304  18.991  0.00  0.00    +0.033 C 
ATOM     20  C   UNL     1      46.588  17.725  18.705  0.00  0.00    +0.254 C 
ATOM     33  O   UNL     1      46.216  14.449  17.488  0.00  0.00    -0.427 OA
ATOM     34  O   UNL     1      48.004  17.767  18.873  0.00  0.00    -0.293 OA
ATOM     35  C   UNL     1      49.014  14.705  17.104  0.00  0.00    +0.220 A 
ENDROOT
BRANCH  20  21
ATOM     21  C   UNL     1      45.939  18.692  19.660  0.00  0.00    -0.160 A 
ATOM     22  C   UNL     1      46.375  18.767  20.974  0.00  0.00    +0.173 A 
ATOM     25  C   UNL     1      45.780  19.660  21.853  0.00  0.00    -0.042 A 
ATOM     26  C   UNL     1      44.742  20.472  21.419  0.00  0.00    +0.154 A 
ATOM     29  C   UNL     1      44.302  20.394  20.106  0.00  0.00    -0.038 A 
ATOM     30  C   UNL     1      44.900  19.504  19.227  0.00  0.00    +0.163 A 
BRANCH  22  23
ATOM     23  O   UNL     1      47.388  17.968  21.400  0.00  0.00    -0.486 OA
ATOM     24  H   UNL     1      47.575  17.222  20.813  0.00  0.00    +0.399 HD
ENDBRANCH  22  23
BRANCH  26  27
ATOM     27  O   UNL     1      44.157  21.345  22.280  0.00  0.00    -0.493 OA
ATOM     28  H   UNL     1      43.372  21.783  21.923  0.00  0.00    +0.399 HD
ENDBRANCH  26  27
BRANCH  30  31
ATOM     31  O   UNL     1      44.469  19.427  17.940  0.00  0.00    -0.490 OA
ATOM     32  H   UNL     1      43.565  19.098  17.847  0.00  0.00    +0.398 HD
ENDBRANCH  30  31
ENDBRANCH  20  21
BRANCH   7   8
ATOM      8  O   UNL     1      52.195  16.468  17.068  0.00  0.00    -0.482 OA
ATOM      9  H   UNL     1      52.522  16.128  16.224  0.00  0.00    +0.398 HD
ENDBRANCH   7   8
BRANCH  35  36
ATOM     36  O   UNL     1      48.484  13.529  16.686  0.00  0.00    -0.472 OA
ATOM     37  H   UNL     1      49.068  12.768  16.808  0.00  0.00    +0.397 HD
ENDBRANCH  35  36
BRANCH   6   5
ATOM      5  C   UNL     1      51.218  13.988  16.157  0.00  0.00    +0.128 C 
BRANCH   5   4
ATOM      1  C   UNL     1      52.680  10.816  17.749  0.00  0.00    +0.072 C 
ATOM      2  C   UNL     1      52.234  11.848  16.744  0.00  0.00    -0.131 C 
ATOM      3  C   UNL     1      52.307  11.543  15.269  0.00  0.00    +0.075 C 
ATOM      4  C   UNL     1      51.785  13.008  17.152  0.00  0.00    -0.050 C 
ENDBRANCH   5   4
ENDBRANCH   6   5
BRANCH  10  11
ATOM     11  C   UNL     1      50.703  18.429  18.429  0.00  0.00    +0.133 C 
BRANCH  11  12
ATOM     12  C   UNL     1      51.021  19.284  17.229  0.00  0.00    -0.062 C 
ATOM     13  C   UNL     1      51.304  20.554  17.387  0.00  0.00    -0.119 C 
ATOM     14  C   UNL     1      51.495  21.439  16.183  0.00  0.00    +0.071 C 
ATOM     15  C   UNL     1      51.437  21.130  18.773  0.00  0.00    +0.073 C 
ENDBRANCH  11  12
ENDBRANCH  10  11
TORSDOF 10
ENDMDL
MODEL 8
REMARK VINA RESULT:      -5.5      3.620      5.866
REMARK  Name = ZINC14641685
REMARK  14 active torsions:
REMARK  status: ('A' for Active; 'I' for Inactive)
REMARK    1  A    between atoms: C1_1  and  C2_2
REMARK    2  A    between atoms: C2_2  and  C25_33
REMARK    3  A    between atoms: C3_3  and  C4_4
REMARK    4  A    between atoms: C4_4  and  C5_5
REMARK    5  A    between atoms: C6_6  and  O7_32
REMARK    6  A    between atoms: C7_7  and  C20_27
REMARK    7  A    between atoms: C10_10  and  O1_11
REMARK    8  A    between atoms: C13_15  and  C14_18
REMARK    9  A    between atoms: C15_19  and  O6_26
REMARK   10  A    between atoms: C17_21  and  O5_25
REMARK   11  A    between atoms: C19_23  and  O4_24
REMARK   12  A    between atoms: C20_27  and  C21_28
REMARK   13  A    between atoms: C22_29  and  C23_30
REMARK   14  A    between atoms: C22_29  and  C24_31
REMARK                            x       y       z     vdW  Elec       q    Type
REMARK                         _______ _______ _______ _____ _____    ______ ____
ROOT
ATOM      6  C   UNL     1      52.306  15.062  19.180  0.00  0.00    -0.171 A 
ATOM      7  C   UNL     1      52.745  16.375  19.060  0.00  0.00    +0.197 A 
ATOM     10  C   UNL     1      51.842  17.430  19.087  0.00  0.00    -0.151 A 
ATOM     16  C   UNL     1      50.489  17.185  19.235  0.00  0.00    +0.216 A 
ATOM     17  C   UNL     1      50.038  15.856  19.350  0.00  0.00    -0.285 A 
ATOM     18  C   UNL     1      48.601  15.600  19.491  0.00  0.00    +0.400 C 
ATOM     19  C   UNL     1      47.723  16.802  19.788  0.00  0.00    +0.033 C 
ATOM     20  C   UNL     1      48.248  17.970  18.940  0.00  0.00    +0.254 C 
ATOM     33  O   UNL     1      48.137  14.484  19.375  0.00  0.00    -0.427 OA
ATOM     34  O   UNL     1      49.614  18.217  19.269  0.00  0.00    -0.293 OA
ATOM     35  C   UNL     1      50.956  14.794  19.321  0.00  0.00    +0.220 A 
ENDROOT
BRANCH  20  21
ATOM     21  C   UNL     1      47.431  19.204  19.221  0.00  0.00    -0.160 A 
ATOM     22  C   UNL     1      47.815  20.074  20.229  0.00  0.00    +0.173 A 
ATOM     25  C   UNL     1      47.065  21.213  20.486  0.00  0.00    -0.042 A 
ATOM     26  C   UNL     1      45.926  21.475  19.740  0.00  0.00    +0.154 A 
ATOM     29  C   UNL     1      45.539  20.602  18.734  0.00  0.00    -0.038 A 
ATOM     30  C   UNL     1      46.291  19.466  18.475  0.00  0.00    +0.163 A 
BRANCH  22  23
ATOM     23  O   UNL     1      48.928  19.815  20.964  0.00  0.00    -0.486 OA
ATOM     24  H   UNL     1      49.158  20.514  21.592  0.00  0.00    +0.399 HD
ENDBRANCH  22  23
BRANCH  26  27
ATOM     27  O   UNL     1      45.189  22.589  19.993  0.00  0.00    -0.493 OA
ATOM     28  H   UNL     1      45.676  23.416  19.880  0.00  0.00    +0.399 HD
ENDBRANCH  26  27
BRANCH  30  31
ATOM     31  O   UNL     1      45.912  18.610  17.490  0.00  0.00    -0.490 OA
ATOM     32  H   UNL     1      45.181  18.936  16.947  0.00  0.00    +0.398 HD
ENDBRANCH  30  31
ENDBRANCH  20  21
BRANCH   7   8
ATOM      8  O   UNL     1      54.069  16.628  18.913  0.00  0.00    -0.482 OA
ATOM      9  H   UNL     1      54.381  17.398  19.409  0.00  0.00    +0.398 HD
ENDBRANCH   7   8
BRANCH  35  36
ATOM     36  O   UNL     1      50.522  13.514  19.437  0.00  0.00    -0.472 OA
ATOM     37  H   UNL     1      49.857  13.262  18.782  0.00  0.00    +0.397 HD
ENDBRANCH  35  36
BRANCH   6   5
ATOM      5  C   UNL     1      53.299  13.929  19.152  0.00  0.00    +0.128 C 
BRANCH   5   4
ATOM      1  C   UNL     1      55.642  13.197  22.102  0.00  0.00    +0.072 C 
ATOM      2  C   UNL     1      55.119  13.564  20.737  0.00  0.00    -0.131 C 
ATOM      3  C   UNL     1      56.080  13.786  19.597  0.00  0.00    +0.075 C 
ATOM      4  C   UNL     1      53.830  13.691  20.541  0.00  0.00    -0.050 C 
ENDBRANCH   5   4
ENDBRANCH   6   5
BRANCH  10  11
ATOM     11  C   UNL     1      52.339  18.847  18.957  0.00  0.00    +0.133 C 
BRANCH  11  12
ATOM     12  C   UNL     1      52.362  19.238  17.501  0.00  0.00    -0.062 C 
ATOM     13  C   UNL     1      51.681  20.281  17.093  0.00  0.00    -0.119 C 
ATOM     14  C   UNL     1      51.599  20.599  15.623  0.00  0.00    +0.071 C 
ATOM     15  C   UNL     1      50.980  21.162  18.094  0.00  0.00    +0.073 C 
ENDBRANCH  11  12
ENDBRANCH  10  11
TORSDOF 10
ENDMDL
MODEL 9
REMARK VINA RESULT:      -5.5      2.435      8.162
REMARK  Name = ZINC14641685
REMARK  14 active torsions:
REMARK  status: ('A' for Active; 'I' for Inactive)
REMARK    1  A    between atoms: C1_1  and  C2_2
REMARK    2  A    between atoms: C2_2  and  C25_33
REMARK    3  A    between atoms: C3_3  and  C4_4
REMARK    4  A    between atoms: C4_4  and  C5_5
REMARK    5  A    between atoms: C6_6  and  O7_32
REMARK    6  A    between atoms: C7_7  and  C20_27
REMARK    7  A    between atoms: C10_10  and  O1_11
REMARK    8  A    between atoms: C13_15  and  C14_18
REMARK    9  A    between atoms: C15_19  and  O6_26
REMARK   10  A    between atoms: C17_21  and  O5_25
REMARK   11  A    between atoms: C19_23  and  O4_24
REMARK   12  A    between atoms: C20_27  and  C21_28
REMARK   13  A    between atoms: C22_29  and  C23_30
REMARK   14  A    between atoms: C22_29  and  C24_31
REMARK                            x       y       z     vdW  Elec       q    Type
REMARK                         _______ _______ _______ _____ _____    ______ ____
ROOT
ATOM      6  C   UNL     1      44.066  19.248  20.477  0.00  0.00    -0.171 A 
ATOM      7  C   UNL     1      44.448  17.950  20.791  0.00  0.00    +0.197 A 
ATOM     10  C   UNL     1      45.746  17.515  20.552  0.00  0.00    -0.151 A 
ATOM     16  C   UNL     1      46.676  18.374  19.994  0.00  0.00    +0.216 A 
ATOM     17  C   UNL     1      46.292  19.688  19.668  0.00  0.00    -0.285 A 
ATOM     18  C   UNL     1      47.278  20.590  19.064  0.00  0.00    +0.400 C 
ATOM     19  C   UNL     1      48.725  20.132  19.093  0.00  0.00    +0.033 C 
ATOM     20  C   UNL     1      48.731  18.626  18.795  0.00  0.00    +0.254 C 
ATOM     33  O   UNL     1      46.953  21.648  18.566  0.00  0.00    -0.427 OA
ATOM     34  O   UNL     1      47.942  17.947  19.770  0.00  0.00    -0.293 OA
ATOM     35  C   UNL     1      44.979  20.121  19.912  0.00  0.00    +0.220 A 
ENDROOT
BRANCH  20  21
ATOM     21  C   UNL     1      50.145  18.108  18.844  0.00  0.00    -0.160 A 
ATOM     22  C   UNL     1      50.791  17.973  20.063  0.00  0.00    +0.173 A 
ATOM     25  C   UNL     1      52.092  17.493  20.109  0.00  0.00    -0.042 A 
ATOM     26  C   UNL     1      52.749  17.158  18.934  0.00  0.00    +0.154 A 
ATOM     29  C   UNL     1      52.104  17.299  17.714  0.00  0.00    -0.038 A 
ATOM     30  C   UNL     1      50.803  17.775  17.669  0.00  0.00    +0.163 A 
BRANCH  22  23
ATOM     23  O   UNL     1      50.150  18.306  21.213  0.00  0.00    -0.486 OA
ATOM     24  H   UNL     1      49.228  18.571  21.088  0.00  0.00    +0.399 HD
ENDBRANCH  22  23
BRANCH  26  27
ATOM     27  O   UNL     1      54.025  16.691  18.978  0.00  0.00    -0.493 OA
ATOM     28  H   UNL     1      54.147  15.838  18.539  0.00  0.00    +0.399 HD
ENDBRANCH  26  27
BRANCH  30  31
ATOM     31  O   UNL     1      50.171  17.912  16.474  0.00  0.00    -0.490 OA
ATOM     32  H   UNL     1      49.932  17.073  16.057  0.00  0.00    +0.398 HD
ENDBRANCH  30  31
ENDBRANCH  20  21
BRANCH   7   8
ATOM      8  O   UNL     1      43.545  17.097  21.336  0.00  0.00    -0.482 OA
ATOM      9  H   UNL     1      43.664  16.951  22.285  0.00  0.00    +0.398 HD
ENDBRANCH   7   8
BRANCH  35  36
ATOM     36  O   UNL     1      44.610  21.389  19.603  0.00  0.00    -0.472 OA
ATOM     37  H   UNL     1      45.111  21.779  18.873  0.00  0.00    +0.397 HD
ENDBRANCH  35  36
BRANCH   6   5
ATOM      5  C   UNL     1      42.655  19.705  20.747  0.00  0.00    +0.128 C 
BRANCH   5   4
ATOM      1  C   UNL     1      40.176  19.702  17.817  0.00  0.00    +0.072 C 
ATOM      2  C   UNL     1      41.174  20.143  18.856  0.00  0.00    -0.131 C 
ATOM      3  C   UNL     1      41.502  21.606  19.013  0.00  0.00    +0.075 C 
ATOM      4  C   UNL     1      41.758  19.256  19.623  0.00  0.00    -0.050 C 
ENDBRANCH   5   4
ENDBRANCH   6   5
BRANCH  10  11
ATOM     11  C   UNL     1      46.141  16.103  20.900  0.00  0.00    +0.133 C 
BRANCH  11  12
ATOM     12  C   UNL     1      45.754  15.180  19.773  0.00  0.00    -0.062 C 
ATOM     13  C   UNL     1      45.361  13.958  20.034  0.00  0.00    -0.119 C 
ATOM     14  C   UNL     1      45.097  12.995  18.906  0.00  0.00    +0.071 C 
ATOM     15  C   UNL     1      45.174  13.515  21.462  0.00  0.00    +0.073 C 
ENDBRANCH  11  12
ENDBRANCH  10  11
TORSDOF 10
ENDMDL
