MODEL 1
REMARK VINA RESULT:      -6.4      0.000      0.000
REMARK  Name = ZINC95485940
REMARK  5 active torsions:
REMARK  status: ('A' for Active; 'I' for Inactive)
REMARK    1  A    between atoms: C1_1  and  C2_2
REMARK    2  A    between atoms: C4_4  and  O8_36
REMARK    3  A    between atoms: C14_24  and  C15_26
REMARK    4  A    between atoms: C20_33  and  C21_34
REMARK    5  A    between atoms: C20_33  and  O7_35
REMARK                            x       y       z     vdW  Elec       q    Type
REMARK                         _______ _______ _______ _____ _____    ______ ____
ROOT
ATOM      1  C   UNL     1      50.156  18.577  21.082  0.00  0.00    +0.060 C 
ATOM      2  C   UNL     1      50.178  19.099  19.644  0.00  0.00    -0.062 C 
ATOM      3  C   UNL     1      49.505  20.466  19.652  0.00  0.00    +0.024 C 
ATOM      4  C   UNL     1      48.052  20.323  20.135  0.00  0.00    +0.221 C 
ATOM      7  C   UNL     1      47.300  19.392  19.201  0.00  0.00    +0.038 C 
ATOM      8  C   UNL     1      45.829  19.297  19.431  0.00  0.00    -0.001 C 
ATOM      9  C   UNL     1      45.463  17.865  19.913  0.00  0.00    -0.036 C 
ATOM     10  C   UNL     1      44.021  18.103  20.371  0.00  0.00    +0.227 C 
ATOM     11  O   UNL     1      44.072  19.395  21.023  0.00  0.00    -0.397 OA
ATOM     12  C   UNL     1      45.667  16.915  18.743  0.00  0.00    +0.069 C 
ATOM     13  C   UNL     1      47.153  17.060  18.391  0.00  0.00    +0.366 C 
ATOM     14  O   UNL     1      47.660  16.467  17.469  0.00  0.00    -0.424 OA
ATOM     15  C   UNL     1      45.189  20.147  20.519  0.00  0.00    +0.300 C 
ATOM     18  C   UNL     1      44.693  21.469  19.929  0.00  0.00    +0.046 C 
ATOM     19  C   UNL     1      47.920  17.986  19.251  0.00  0.00    +0.016 C 
ATOM     20  C   UNL     1      51.624  19.164  19.212  0.00  0.00    +0.332 C 
ATOM     26  O   UNL     1      52.194  17.834  19.149  0.00  0.00    -0.338 OA
ATOM     27  C   UNL     1      51.618  16.930  18.349  0.00  0.00    +0.496 C 
ATOM     28  O   UNL     1      52.291  16.109  17.771  0.00  0.00    -0.429 OA
ATOM     29  C   UNL     1      50.111  16.947  18.174  0.00  0.00    +0.128 C 
ATOM     30  O   UNL     1      49.611  18.048  17.392  0.00  0.00    -0.290 OA
ATOM     31  C   UNL     1      49.369  18.121  18.796  0.00  0.00    +0.056 C 
ENDROOT
BRANCH  20  21
ATOM     21  C   UNL     1      51.707  19.865  17.881  0.00  0.00    -0.227 A 
ATOM     22  C   UNL     1      51.097  21.093  17.536  0.00  0.00    -0.040 A 
ATOM     23  C   UNL     1      51.429  21.348  16.258  0.00  0.00    +0.169 A 
ATOM     24  O   UNL     1      52.204  20.345  15.813  0.00  0.00    -0.168 OA
ATOM     25  C   UNL     1      52.380  19.445  16.794  0.00  0.00    +0.197 A 
ENDBRANCH  20  21
BRANCH   4   5
ATOM      5  O   UNL     1      47.423  21.607  20.137  0.00  0.00    -0.544 OA
ATOM      6  H   UNL     1      46.477  21.582  19.941  0.00  0.00    +0.375 HD
ENDBRANCH   4   5
BRANCH  15  16
ATOM     16  O   UNL     1      46.129  20.396  21.565  0.00  0.00    -0.538 OA
ATOM     17  H   UNL     1      45.725  20.648  22.406  0.00  0.00    +0.375 HD
ENDBRANCH  15  16
TORSDOF 3
ENDMDL
MODEL 2
REMARK VINA RESULT:      -6.1      2.287      5.968
REMARK  Name = ZINC95485940
REMARK  5 active torsions:
REMARK  status: ('A' for Active; 'I' for Inactive)
REMARK    1  A    between atoms: C1_1  and  C2_2
REMARK    2  A    between atoms: C4_4  and  O8_36
REMARK    3  A    between atoms: C14_24  and  C15_26
REMARK    4  A    between atoms: C20_33  and  C21_34
REMARK    5  A    between atoms: C20_33  and  O7_35
REMARK                            x       y       z     vdW  Elec       q    Type
REMARK                         _______ _______ _______ _____ _____    ______ ____
ROOT
ATOM      1  C   UNL     1      46.580  18.050  17.682  0.00  0.00    +0.060 C 
ATOM      2  C   UNL     1      47.281  17.259  18.788  0.00  0.00    -0.062 C 
ATOM      3  C   UNL     1      47.803  18.270  19.802  0.00  0.00    +0.024 C 
ATOM      4  C   UNL     1      48.805  19.216  19.120  0.00  0.00    +0.221 C 
ATOM      7  C   UNL     1      49.964  18.408  18.565  0.00  0.00    +0.038 C 
ATOM      8  C   UNL     1      51.110  19.202  18.034  0.00  0.00    -0.001 C 
ATOM      9  C   UNL     1      51.229  18.992  16.498  0.00  0.00    -0.036 C 
ATOM     10  C   UNL     1      52.221  20.109  16.157  0.00  0.00    +0.227 C 
ATOM     11  O   UNL     1      51.792  21.218  16.984  0.00  0.00    -0.397 OA
ATOM     12  C   UNL     1      51.692  17.563  16.260  0.00  0.00    +0.069 C 
ATOM     13  C   UNL     1      50.595  16.698  16.893  0.00  0.00    +0.366 C 
ATOM     14  O   UNL     1      50.656  15.493  16.920  0.00  0.00    -0.424 OA
ATOM     15  C   UNL     1      51.067  20.721  18.121  0.00  0.00    +0.300 C 
ATOM     18  C   UNL     1      51.745  21.192  19.409  0.00  0.00    +0.046 C 
ATOM     19  C   UNL     1      49.460  17.444  17.479  0.00  0.00    +0.016 C 
ATOM     20  C   UNL     1      46.262  16.314  19.379  0.00  0.00    +0.332 C 
ATOM     26  O   UNL     1      45.856  15.329  18.398  0.00  0.00    -0.338 OA
ATOM     27  C   UNL     1      46.795  14.550  17.848  0.00  0.00    +0.496 C 
ATOM     28  O   UNL     1      46.546  13.403  17.562  0.00  0.00    -0.429 OA
ATOM     29  C   UNL     1      48.176  15.124  17.588  0.00  0.00    +0.128 C 
ATOM     30  O   UNL     1      48.965  15.345  18.772  0.00  0.00    -0.290 OA
ATOM     31  C   UNL     1      48.448  16.516  18.141  0.00  0.00    +0.056 C 
ENDROOT
BRANCH  20  21
ATOM     21  C   UNL     1      46.850  15.664  20.604  0.00  0.00    -0.227 A 
ATOM     22  C   UNL     1      47.644  16.291  21.592  0.00  0.00    -0.040 A 
ATOM     23  C   UNL     1      47.951  15.349  22.501  0.00  0.00    +0.169 A 
ATOM     24  O   UNL     1      47.388  14.191  22.120  0.00  0.00    -0.168 OA
ATOM     25  C   UNL     1      46.715  14.377  20.972  0.00  0.00    +0.197 A 
ENDBRANCH  20  21
BRANCH   4   5
ATOM      5  O   UNL     1      49.294  20.161  20.074  0.00  0.00    -0.544 OA
ATOM      6  H   UNL     1      48.693  20.320  20.814  0.00  0.00    +0.375 HD
ENDBRANCH   4   5
BRANCH  15  16
ATOM     16  O   UNL     1      49.714  21.177  18.083  0.00  0.00    -0.538 OA
ATOM     17  H   UNL     1      49.493  21.813  18.776  0.00  0.00    +0.375 HD
ENDBRANCH  15  16
TORSDOF 3
ENDMDL
MODEL 3
REMARK VINA RESULT:      -6.1      2.627      6.173
REMARK  Name = ZINC95485940
REMARK  5 active torsions:
REMARK  status: ('A' for Active; 'I' for Inactive)
REMARK    1  A    between atoms: C1_1  and  C2_2
REMARK    2  A    between atoms: C4_4  and  O8_36
REMARK    3  A    between atoms: C14_24  and  C15_26
REMARK    4  A    between atoms: C20_33  and  C21_34
REMARK    5  A    between atoms: C20_33  and  O7_35
REMARK                            x       y       z     vdW  Elec       q    Type
REMARK                         _______ _______ _______ _____ _____    ______ ____
ROOT
ATOM      1  C   UNL     1      50.957  15.089  19.897  0.00  0.00    +0.060 C 
ATOM      2  C   UNL     1      49.983  14.961  18.724  0.00  0.00    -0.062 C 
ATOM      3  C   UNL     1      50.767  15.261  17.453  0.00  0.00    +0.024 C 
ATOM      4  C   UNL     1      51.324  16.693  17.517  0.00  0.00    +0.221 C 
ATOM      7  C   UNL     1      50.175  17.677  17.649  0.00  0.00    +0.038 C 
ATOM      8  C   UNL     1      50.542  19.118  17.539  0.00  0.00    -0.001 C 
ATOM      9  C   UNL     1      50.299  19.829  18.900  0.00  0.00    -0.036 C 
ATOM     10  C   UNL     1      51.022  21.154  18.636  0.00  0.00    +0.227 C 
ATOM     11  O   UNL     1      52.214  20.761  17.912  0.00  0.00    -0.397 OA
ATOM     12  C   UNL     1      48.796  19.897  19.125  0.00  0.00    +0.069 C 
ATOM     13  C   UNL     1      48.347  18.431  19.134  0.00  0.00    +0.366 C 
ATOM     14  O   UNL     1      47.189  18.110  19.257  0.00  0.00    -0.424 OA
ATOM     15  C   UNL     1      51.989  19.499  17.262  0.00  0.00    +0.300 C 
ATOM     18  C   UNL     1      52.213  19.650  15.755  0.00  0.00    +0.046 C 
ATOM     19  C   UNL     1      49.429  17.436  18.972  0.00  0.00    +0.016 C 
ATOM     20  C   UNL     1      49.432  13.555  18.751  0.00  0.00    +0.332 C 
ATOM     26  O   UNL     1      48.633  13.346  19.941  0.00  0.00    -0.338 OA
ATOM     27  C   UNL     1      47.585  14.149  20.157  0.00  0.00    +0.496 C 
ATOM     28  O   UNL     1      46.585  13.720  20.681  0.00  0.00    -0.429 OA
ATOM     29  C   UNL     1      47.668  15.605  19.736  0.00  0.00    +0.128 C 
ATOM     30  O   UNL     1      47.619  15.821  18.314  0.00  0.00    -0.290 OA
ATOM     31  C   UNL     1      48.892  16.010  18.928  0.00  0.00    +0.056 C 
ENDROOT
BRANCH  20  21
ATOM     21  C   UNL     1      48.627  13.321  17.498  0.00  0.00    -0.227 A 
ATOM     22  C   UNL     1      49.004  13.663  16.179  0.00  0.00    -0.040 A 
ATOM     23  C   UNL     1      47.999  13.276  15.373  0.00  0.00    +0.169 A 
ATOM     24  O   UNL     1      47.038  12.722  16.130  0.00  0.00    -0.168 OA
ATOM     25  C   UNL     1      47.416  12.741  17.419  0.00  0.00    +0.197 A 
ENDBRANCH  20  21
BRANCH   4   5
ATOM      5  O   UNL     1      52.056  16.973  16.321  0.00  0.00    -0.544 OA
ATOM      6  H   UNL     1      52.218  16.197  15.768  0.00  0.00    +0.375 HD
ENDBRANCH   4   5
BRANCH  15  16
ATOM     16  O   UNL     1      52.869  18.506  17.792  0.00  0.00    -0.538 OA
ATOM     17  H   UNL     1      53.775  18.814  17.927  0.00  0.00    +0.375 HD
ENDBRANCH  15  16
TORSDOF 3
ENDMDL
MODEL 4
REMARK VINA RESULT:      -6.0      4.541      8.379
REMARK  Name = ZINC95485940
REMARK  5 active torsions:
REMARK  status: ('A' for Active; 'I' for Inactive)
REMARK    1  A    between atoms: C1_1  and  C2_2
REMARK    2  A    between atoms: C4_4  and  O8_36
REMARK    3  A    between atoms: C14_24  and  C15_26
REMARK    4  A    between atoms: C20_33  and  C21_34
REMARK    5  A    between atoms: C20_33  and  O7_35
REMARK                            x       y       z     vdW  Elec       q    Type
REMARK                         _______ _______ _______ _____ _____    ______ ____
ROOT
ATOM      1  C   UNL     1      46.893  11.696  17.545  0.00  0.00    +0.060 C 
ATOM      2  C   UNL     1      47.178  13.199  17.517  0.00  0.00    -0.062 C 
ATOM      3  C   UNL     1      47.188  13.627  16.054  0.00  0.00    +0.024 C 
ATOM      4  C   UNL     1      48.296  12.870  15.303  0.00  0.00    +0.221 C 
ATOM      7  C   UNL     1      49.640  13.185  15.934  0.00  0.00    +0.038 C 
ATOM      8  C   UNL     1      50.834  12.670  15.203  0.00  0.00    -0.001 C 
ATOM      9  C   UNL     1      51.549  11.587  16.058  0.00  0.00    -0.036 C 
ATOM     10  C   UNL     1      52.502  11.009  15.007  0.00  0.00    +0.227 C 
ATOM     11  O   UNL     1      51.702  10.964  13.801  0.00  0.00    -0.397 OA
ATOM     12  C   UNL     1      52.180  12.282  17.255  0.00  0.00    +0.069 C 
ATOM     13  C   UNL     1      50.998  12.929  17.985  0.00  0.00    +0.366 C 
ATOM     14  O   UNL     1      51.141  13.603  18.977  0.00  0.00    -0.424 OA
ATOM     15  C   UNL     1      50.639  11.928  13.889  0.00  0.00    +0.300 C 
ATOM     18  C   UNL     1      50.733  12.904  12.715  0.00  0.00    +0.046 C 
ATOM     19  C   UNL     1      49.669  12.679  17.386  0.00  0.00    +0.016 C 
ATOM     20  C   UNL     1      46.090  13.877  18.315  0.00  0.00    +0.332 C 
ATOM     26  O   UNL     1      46.171  13.495  19.709  0.00  0.00    -0.338 OA
ATOM     27  C   UNL     1      47.308  13.735  20.373  0.00  0.00    +0.496 C 
ATOM     28  O   UNL     1      47.281  14.039  21.542  0.00  0.00    -0.429 OA
ATOM     29  C   UNL     1      48.632  13.621  19.639  0.00  0.00    +0.128 C 
ATOM     30  O   UNL     1      48.887  14.678  18.696  0.00  0.00    -0.290 OA
ATOM     31  C   UNL     1      48.559  13.408  18.134  0.00  0.00    +0.056 C 
ENDROOT
BRANCH  20  21
ATOM     21  C   UNL     1      46.214  15.369  18.143  0.00  0.00    -0.227 A 
ATOM     22  C   UNL     1      46.613  16.051  16.971  0.00  0.00    -0.040 A 
ATOM     23  C   UNL     1      46.585  17.366  17.255  0.00  0.00    +0.169 A 
ATOM     24  O   UNL     1      46.191  17.515  18.531  0.00  0.00    -0.168 OA
ATOM     25  C   UNL     1      45.959  16.308  19.072  0.00  0.00    +0.197 A 
ENDBRANCH  20  21
BRANCH   4   5
ATOM      5  O   UNL     1      48.305  13.276  13.933  0.00  0.00    -0.544 OA
ATOM      6  H   UNL     1      47.769  14.059  13.751  0.00  0.00    +0.375 HD
ENDBRANCH   4   5
BRANCH  15  16
ATOM     16  O   UNL     1      49.372  11.268  13.881  0.00  0.00    -0.538 OA
ATOM     17  H   UNL     1      49.239  10.680  13.125  0.00  0.00    +0.375 HD
ENDBRANCH  15  16
TORSDOF 3
ENDMDL
MODEL 5
REMARK VINA RESULT:      -5.9      2.627      5.675
REMARK  Name = ZINC95485940
REMARK  5 active torsions:
REMARK  status: ('A' for Active; 'I' for Inactive)
REMARK    1  A    between atoms: C1_1  and  C2_2
REMARK    2  A    between atoms: C4_4  and  O8_36
REMARK    3  A    between atoms: C14_24  and  C15_26
REMARK    4  A    between atoms: C20_33  and  C21_34
REMARK    5  A    between atoms: C20_33  and  O7_35
REMARK                            x       y       z     vdW  Elec       q    Type
REMARK                         _______ _______ _______ _____ _____    ______ ____
ROOT
ATOM      1  C   UNL     1      45.092  19.131  18.118  0.00  0.00    +0.060 C 
ATOM      2  C   UNL     1      46.349  19.145  18.989  0.00  0.00    -0.062 C 
ATOM      3  C   UNL     1      47.510  18.694  18.111  0.00  0.00    +0.024 C 
ATOM      4  C   UNL     1      47.245  17.270  17.597  0.00  0.00    +0.221 C 
ATOM      7  C   UNL     1      47.104  16.325  18.778  0.00  0.00    +0.038 C 
ATOM      8  C   UNL     1      47.027  14.874  18.439  0.00  0.00    -0.001 C 
ATOM      9  C   UNL     1      45.622  14.321  18.811  0.00  0.00    -0.036 C 
ATOM     10  C   UNL     1      45.679  12.964  18.102  0.00  0.00    +0.227 C 
ATOM     11  O   UNL     1      46.338  13.257  16.845  0.00  0.00    -0.397 OA
ATOM     12  C   UNL     1      45.518  14.302  20.328  0.00  0.00    +0.069 C 
ATOM     13  C   UNL     1      45.705  15.768  20.739  0.00  0.00    +0.366 C 
ATOM     14  O   UNL     1      45.716  16.118  21.895  0.00  0.00    -0.424 OA
ATOM     15  C   UNL     1      47.138  14.443  16.984  0.00  0.00    +0.300 C 
ATOM     18  C   UNL     1      48.595  14.123  16.641  0.00  0.00    +0.046 C 
ATOM     19  C   UNL     1      45.883  16.722  19.623  0.00  0.00    +0.016 C 
ATOM     20  C   UNL     1      46.522  20.554  19.506  0.00  0.00    +0.332 C 
ATOM     26  O   UNL     1      45.433  20.906  20.393  0.00  0.00    -0.338 OA
ATOM     27  C   UNL     1      45.220  20.148  21.475  0.00  0.00    +0.496 C 
ATOM     28  O   UNL     1      44.832  20.648  22.504  0.00  0.00    -0.429 OA
ATOM     29  C   UNL     1      45.473  18.653  21.395  0.00  0.00    +0.128 C 
ATOM     30  O   UNL     1      46.862  18.283  21.333  0.00  0.00    -0.290 OA
ATOM     31  C   UNL     1      46.126  18.142  20.119  0.00  0.00    +0.056 C 
ENDROOT
BRANCH  20  21
ATOM     21  C   UNL     1      47.856  20.662  20.198  0.00  0.00    -0.227 A 
ATOM     22  C   UNL     1      49.090  20.149  19.735  0.00  0.00    -0.040 A 
ATOM     23  C   UNL     1      50.016  20.469  20.656  0.00  0.00    +0.169 A 
ATOM     24  O   UNL     1      49.412  21.145  21.648  0.00  0.00    -0.168 OA
ATOM     25  C   UNL     1      48.103  21.269  21.373  0.00  0.00    +0.197 A 
ENDBRANCH  20  21
BRANCH   4   5
ATOM      5  O   UNL     1      48.338  16.848  16.777  0.00  0.00    -0.544 OA
ATOM      6  H   UNL     1      48.854  17.576  16.406  0.00  0.00    +0.375 HD
ENDBRANCH   4   5
BRANCH  15  16
ATOM     16  O   UNL     1      46.646  15.474  16.126  0.00  0.00    -0.538 OA
ATOM     17  H   UNL     1      46.153  15.148  15.361  0.00  0.00    +0.375 HD
ENDBRANCH  15  16
TORSDOF 3
ENDMDL
MODEL 6
REMARK VINA RESULT:      -5.9      3.508      6.505
REMARK  Name = ZINC95485940
REMARK  5 active torsions:
REMARK  status: ('A' for Active; 'I' for Inactive)
REMARK    1  A    between atoms: C1_1  and  C2_2
REMARK    2  A    between atoms: C4_4  and  O8_36
REMARK    3  A    between atoms: C14_24  and  C15_26
REMARK    4  A    between atoms: C20_33  and  C21_34
REMARK    5  A    between atoms: C20_33  and  O7_35
REMARK                            x       y       z     vdW  Elec       q    Type
REMARK                         _______ _______ _______ _____ _____    ______ ____
ROOT
ATOM      1  C   UNL     1      45.463  18.152  18.140  0.00  0.00    +0.060 C 
ATOM      2  C   UNL     1      45.493  19.091  19.347  0.00  0.00    -0.062 C 
ATOM      3  C   UNL     1      46.926  19.115  19.865  0.00  0.00    +0.024 C 
ATOM      4  C   UNL     1      47.343  17.698  20.293  0.00  0.00    +0.221 C 
ATOM      7  C   UNL     1      46.414  17.209  21.391  0.00  0.00    +0.038 C 
ATOM      8  C   UNL     1      46.802  15.923  22.040  0.00  0.00    -0.001 C 
ATOM      9  C   UNL     1      45.745  14.830  21.715  0.00  0.00    -0.036 C 
ATOM     10  C   UNL     1      46.499  13.586  22.196  0.00  0.00    +0.227 C 
ATOM     11  O   UNL     1      47.863  13.818  21.765  0.00  0.00    -0.397 OA
ATOM     12  C   UNL     1      44.465  15.188  22.453  0.00  0.00    +0.069 C 
ATOM     13  C   UNL     1      44.081  16.566  21.900  0.00  0.00    +0.366 C 
ATOM     14  O   UNL     1      43.118  17.177  22.297  0.00  0.00    -0.424 OA
ATOM     15  C   UNL     1      48.086  15.229  21.609  0.00  0.00    +0.300 C 
ATOM     18  C   UNL     1      49.246  15.668  22.505  0.00  0.00    +0.046 C 
ATOM     19  C   UNL     1      44.978  17.101  20.852  0.00  0.00    +0.016 C 
ATOM     20  C   UNL     1      45.022  20.446  18.873  0.00  0.00    +0.332 C 
ATOM     26  O   UNL     1      43.634  20.386  18.464  0.00  0.00    -0.338 OA
ATOM     27  C   UNL     1      42.722  19.978  19.355  0.00  0.00    +0.496 C 
ATOM     28  O   UNL     1      41.612  20.455  19.355  0.00  0.00    -0.429 OA
ATOM     29  C   UNL     1      43.099  18.909  20.365  0.00  0.00    +0.128 C 
ATOM     30  O   UNL     1      43.999  19.351  21.397  0.00  0.00    -0.290 OA
ATOM     31  C   UNL     1      44.563  18.497  20.403  0.00  0.00    +0.056 C 
ENDROOT
BRANCH  20  21
ATOM     21  C   UNL     1      45.229  21.450  19.978  0.00  0.00    -0.227 A 
ATOM     22  C   UNL     1      46.361  21.557  20.818  0.00  0.00    -0.040 A 
ATOM     23  C   UNL     1      46.130  22.583  21.656  0.00  0.00    +0.169 A 
ATOM     24  O   UNL     1      44.925  23.101  21.369  0.00  0.00    -0.168 OA
ATOM     25  C   UNL     1      44.376  22.422  20.349  0.00  0.00    +0.197 A 
ENDBRANCH  20  21
BRANCH   4   5
ATOM      5  O   UNL     1      48.686  17.724  20.781  0.00  0.00    -0.544 OA
ATOM      6  H   UNL     1      48.788  18.178  21.628  0.00  0.00    +0.375 HD
ENDBRANCH   4   5
BRANCH  15  16
ATOM     16  O   UNL     1      48.376  15.536  20.244  0.00  0.00    -0.538 OA
ATOM     17  H   UNL     1      48.395  16.482  20.048  0.00  0.00    +0.375 HD
ENDBRANCH  15  16
TORSDOF 3
ENDMDL
MODEL 7
REMARK VINA RESULT:      -5.5      2.411      6.764
REMARK  Name = ZINC95485940
REMARK  5 active torsions:
REMARK  status: ('A' for Active; 'I' for Inactive)
REMARK    1  A    between atoms: C1_1  and  C2_2
REMARK    2  A    between atoms: C4_4  and  O8_36
REMARK    3  A    between atoms: C14_24  and  C15_26
REMARK    4  A    between atoms: C20_33  and  C21_34
REMARK    5  A    between atoms: C20_33  and  O7_35
REMARK                            x       y       z     vdW  Elec       q    Type
REMARK                         _______ _______ _______ _____ _____    ______ ____
ROOT
ATOM      1  C   UNL     1      45.633  18.345  22.300  0.00  0.00    +0.060 C 
ATOM      2  C   UNL     1      44.965  18.897  21.039  0.00  0.00    -0.062 C 
ATOM      3  C   UNL     1      44.430  17.704  20.255  0.00  0.00    +0.024 C 
ATOM      4  C   UNL     1      45.593  16.777  19.868  0.00  0.00    +0.221 C 
ATOM      7  C   UNL     1      46.587  17.543  19.013  0.00  0.00    +0.038 C 
ATOM      8  C   UNL     1      47.679  16.729  18.405  0.00  0.00    -0.001 C 
ATOM      9  C   UNL     1      49.047  17.148  19.013  0.00  0.00    -0.036 C 
ATOM     10  C   UNL     1      49.925  16.004  18.496  0.00  0.00    +0.227 C 
ATOM     11  O   UNL     1      49.085  14.832  18.637  0.00  0.00    -0.397 OA
ATOM     12  C   UNL     1      49.371  18.546  18.509  0.00  0.00    +0.069 C 
ATOM     13  C   UNL     1      48.209  19.410  19.015  0.00  0.00    +0.366 C 
ATOM     14  O   UNL     1      48.121  20.587  18.762  0.00  0.00    -0.424 OA
ATOM     15  C   UNL     1      47.702  15.225  18.634  0.00  0.00    +0.300 C 
ATOM     18  C   UNL     1      46.966  14.509  17.500  0.00  0.00    +0.046 C 
ATOM     19  C   UNL     1      47.196  18.699  19.824  0.00  0.00    +0.016 C 
ATOM     20  C   UNL     1      43.872  19.839  21.485  0.00  0.00    +0.332 C 
ATOM     26  O   UNL     1      44.438  20.990  22.157  0.00  0.00    -0.338 OA
ATOM     27  C   UNL     1      45.319  21.747  21.494  0.00  0.00    +0.496 C 
ATOM     28  O   UNL     1      45.351  22.943  21.670  0.00  0.00    -0.429 OA
ATOM     29  C   UNL     1      46.278  21.089  20.519  0.00  0.00    +0.128 C 
ATOM     30  O   UNL     1      45.667  20.624  19.301  0.00  0.00    -0.290 OA
ATOM     31  C   UNL     1      46.046  19.612  20.232  0.00  0.00    +0.056 C 
ENDROOT
BRANCH  20  21
ATOM     21  C   UNL     1      43.056  20.245  20.286  0.00  0.00    -0.227 A 
ATOM     22  C   UNL     1      42.366  19.382  19.404  0.00  0.00    -0.040 A 
ATOM     23  C   UNL     1      41.773  20.159  18.481  0.00  0.00    +0.169 A 
ATOM     24  O   UNL     1      42.064  21.441  18.755  0.00  0.00    -0.168 OA
ATOM     25  C   UNL     1      42.838  21.500  19.852  0.00  0.00    +0.197 A 
ENDBRANCH  20  21
BRANCH   4   5
ATOM      5  O   UNL     1      45.089  15.662  19.131  0.00  0.00    -0.544 OA
ATOM      6  H   UNL     1      45.180  14.815  19.586  0.00  0.00    +0.375 HD
ENDBRANCH   4   5
BRANCH  15  16
ATOM     16  O   UNL     1      47.097  14.910  19.889  0.00  0.00    -0.538 OA
ATOM     17  H   UNL     1      46.536  15.613  20.244  0.00  0.00    +0.375 HD
ENDBRANCH  15  16
TORSDOF 3
ENDMDL
MODEL 8
REMARK VINA RESULT:      -5.5      2.355      4.809
REMARK  Name = ZINC95485940
REMARK  5 active torsions:
REMARK  status: ('A' for Active; 'I' for Inactive)
REMARK    1  A    between atoms: C1_1  and  C2_2
REMARK    2  A    between atoms: C4_4  and  O8_36
REMARK    3  A    between atoms: C14_24  and  C15_26
REMARK    4  A    between atoms: C20_33  and  C21_34
REMARK    5  A    between atoms: C20_33  and  O7_35
REMARK                            x       y       z     vdW  Elec       q    Type
REMARK                         _______ _______ _______ _____ _____    ______ ____
ROOT
ATOM      1  C   UNL     1      46.495  16.372  16.701  0.00  0.00    +0.060 C 
ATOM      2  C   UNL     1      47.130  15.942  18.025  0.00  0.00    -0.062 C 
ATOM      3  C   UNL     1      46.016  15.890  19.062  0.00  0.00    +0.024 C 
ATOM      4  C   UNL     1      45.386  17.284  19.213  0.00  0.00    +0.221 C 
ATOM      7  C   UNL     1      46.450  18.273  19.658  0.00  0.00    +0.038 C 
ATOM      8  C   UNL     1      45.955  19.632  20.026  0.00  0.00    -0.001 C 
ATOM      9  C   UNL     1      46.496  20.679  19.013  0.00  0.00    -0.036 C 
ATOM     10  C   UNL     1      45.628  21.883  19.394  0.00  0.00    +0.227 C 
ATOM     11  O   UNL     1      44.321  21.307  19.635  0.00  0.00    -0.397 OA
ATOM     12  C   UNL     1      47.994  20.812  19.236  0.00  0.00    +0.069 C 
ATOM     13  C   UNL     1      48.542  19.403  18.980  0.00  0.00    +0.366 C 
ATOM     14  O   UNL     1      49.712  19.131  19.105  0.00  0.00    -0.424 OA
ATOM     15  C   UNL     1      44.462  19.918  19.979  0.00  0.00    +0.300 C 
ATOM     18  C   UNL     1      43.835  19.663  21.352  0.00  0.00    +0.046 C 
ATOM     19  C   UNL     1      47.536  18.395  18.578  0.00  0.00    +0.016 C 
ATOM     20  C   UNL     1      47.776  14.596  17.795  0.00  0.00    +0.332 C 
ATOM     26  O   UNL     1      48.875  14.714  16.860  0.00  0.00    -0.338 OA
ATOM     27  C   UNL     1      49.878  15.550  17.154  0.00  0.00    +0.496 C 
ATOM     28  O   UNL     1      51.012  15.279  16.836  0.00  0.00    -0.429 OA
ATOM     29  C   UNL     1      49.574  16.841  17.891  0.00  0.00    +0.128 C 
ATOM     30  O   UNL     1      49.226  16.671  19.278  0.00  0.00    -0.290 OA
ATOM     31  C   UNL     1      48.151  17.012  18.404  0.00  0.00    +0.056 C 
ENDROOT
BRANCH  20  21
ATOM     21  C   UNL     1      48.234  14.040  19.119  0.00  0.00    -0.227 A 
ATOM     22  C   UNL     1      47.539  14.111  20.348  0.00  0.00    -0.040 A 
ATOM     23  C   UNL     1      48.304  13.492  21.265  0.00  0.00    +0.169 A 
ATOM     24  O   UNL     1      49.419  13.051  20.659  0.00  0.00    -0.168 OA
ATOM     25  C   UNL     1      49.380  13.377  19.357  0.00  0.00    +0.197 A 
ENDBRANCH  20  21
BRANCH   4   5
ATOM      5  O   UNL     1      44.344  17.233  20.190  0.00  0.00    -0.544 OA
ATOM      6  H   UNL     1      44.064  16.337  20.420  0.00  0.00    +0.375 HD
ENDBRANCH   4   5
BRANCH  15  16
ATOM     16  O   UNL     1      43.834  19.098  18.992  0.00  0.00    -0.538 OA
ATOM     17  H   UNL     1      43.155  19.553  18.476  0.00  0.00    +0.375 HD
ENDBRANCH  15  16
TORSDOF 3
ENDMDL
MODEL 9
REMARK VINA RESULT:      -5.4      3.122      6.264
REMARK  Name = ZINC95485940
REMARK  5 active torsions:
REMARK  status: ('A' for Active; 'I' for Inactive)
REMARK    1  A    between atoms: C1_1  and  C2_2
REMARK    2  A    between atoms: C4_4  and  O8_36
REMARK    3  A    between atoms: C14_24  and  C15_26
REMARK    4  A    between atoms: C20_33  and  C21_34
REMARK    5  A    between atoms: C20_33  and  O7_35
REMARK                            x       y       z     vdW  Elec       q    Type
REMARK                         _______ _______ _______ _____ _____    ______ ____
ROOT
ATOM      1  C   UNL     1      46.860  17.606  16.892  0.00  0.00    +0.060 C 
ATOM      2  C   UNL     1      47.658  17.272  18.154  0.00  0.00    -0.062 C 
ATOM      3  C   UNL     1      48.891  16.493  17.713  0.00  0.00    +0.024 C 
ATOM      4  C   UNL     1      48.458  15.196  17.010  0.00  0.00    +0.221 C 
ATOM      7  C   UNL     1      47.638  14.351  17.968  0.00  0.00    +0.038 C 
ATOM      8  C   UNL     1      47.300  12.978  17.492  0.00  0.00    -0.001 C 
ATOM      9  C   UNL     1      45.764  12.858  17.283  0.00  0.00    -0.036 C 
ATOM     10  C   UNL     1      45.707  11.531  16.520  0.00  0.00    +0.227 C 
ATOM     11  O   UNL     1      46.838  11.602  15.616  0.00  0.00    -0.397 OA
ATOM     12  C   UNL     1      45.105  12.894  18.653  0.00  0.00    +0.069 C 
ATOM     13  C   UNL     1      45.518  14.250  19.237  0.00  0.00    +0.366 C 
ATOM     14  O   UNL     1      45.196  14.601  20.347  0.00  0.00    -0.424 OA
ATOM     15  C   UNL     1      47.820  12.510  16.141  0.00  0.00    +0.300 C 
ATOM     18  C   UNL     1      49.153  11.780  16.316  0.00  0.00    +0.046 C 
ATOM     19  C   UNL     1      46.349  15.095  18.352  0.00  0.00    +0.016 C 
ATOM     20  C   UNL     1      48.004  18.580  18.825  0.00  0.00    +0.332 C 
ATOM     26  O   UNL     1      46.804  19.244  19.291  0.00  0.00    -0.338 OA
ATOM     27  C   UNL     1      46.008  18.597  20.150  0.00  0.00    +0.496 C 
ATOM     28  O   UNL     1      45.419  19.203  21.013  0.00  0.00    -0.429 OA
ATOM     29  C   UNL     1      45.855  17.091  20.028  0.00  0.00    +0.128 C 
ATOM     30  O   UNL     1      47.011  16.337  20.435  0.00  0.00    -0.290 OA
ATOM     31  C   UNL     1      46.768  16.394  19.031  0.00  0.00    +0.056 C 
ENDROOT
BRANCH  20  21
ATOM     21  C   UNL     1      48.961  18.312  19.957  0.00  0.00    -0.227 A 
ATOM     22  C   UNL     1      50.045  17.403  19.946  0.00  0.00    -0.040 A 
ATOM     23  C   UNL     1      50.631  17.481  21.154  0.00  0.00    +0.169 A 
ATOM     24  O   UNL     1      49.965  18.384  21.892  0.00  0.00    -0.168 OA
ATOM     25  C   UNL     1      48.954  18.895  21.169  0.00  0.00    +0.197 A 
ENDBRANCH  20  21
BRANCH   4   5
ATOM      5  O   UNL     1      49.617  14.467  16.601  0.00  0.00    -0.544 OA
ATOM      6  H   UNL     1      50.449  14.831  16.932  0.00  0.00    +0.375 HD
ENDBRANCH   4   5
BRANCH  15  16
ATOM     16  O   UNL     1      47.981  13.625  15.263  0.00  0.00    -0.538 OA
ATOM     17  H   UNL     1      48.742  13.554  14.671  0.00  0.00    +0.375 HD
ENDBRANCH  15  16
TORSDOF 3
ENDMDL
