MODEL 1
REMARK VINA RESULT:      -5.9      0.000      0.000
REMARK  Name = ZINC14490611
REMARK  3 active torsions:
REMARK  status: ('A' for Active; 'I' for Inactive)
REMARK    1  A    between atoms: C1_1  and  C2_2
REMARK    2  A    between atoms: C8_10  and  O5_18
REMARK    3  A    between atoms: C11_13  and  O4_17
REMARK                            x       y       z     vdW  Elec       q    Type
REMARK                         _______ _______ _______ _____ _____    ______ ____
ROOT
ATOM      1  C   UNL     1      46.168  25.137  20.996  0.00  0.00    +0.203 C 
ATOM      2  C   UNL     1      45.984  23.671  21.296  0.00  0.00    +0.103 A 
ATOM      3  C   UNL     1      45.072  22.864  20.732  0.00  0.00    -0.254 A 
ATOM      4  C   UNL     1      45.282  21.523  21.347  0.00  0.00    -0.247 A 
ATOM      5  C   UNL     1      44.439  20.385  20.951  0.00  0.00    +0.471 C 
ATOM      6  C   UNL     1      43.252  20.686  20.115  0.00  0.00    -0.130 A 
ATOM      7  C   UNL     1      42.307  19.676  19.903  0.00  0.00    +0.148 A 
ATOM     10  C   UNL     1      41.182  19.925  19.125  0.00  0.00    +0.039 A 
ATOM     11  C   UNL     1      40.987  21.166  18.558  0.00  0.00    +0.040 A 
ATOM     12  C   UNL     1      41.915  22.184  18.756  0.00  0.00    +0.147 A 
ATOM     15  C   UNL     1      43.054  21.954  19.535  0.00  0.00    -0.128 A 
ATOM     16  O   UNL     1      44.705  19.248  21.294  0.00  0.00    -0.421 OA
ATOM     17  C   UNL     1      46.297  21.671  22.212  0.00  0.00    +0.302 A 
ATOM     18  C   UNL     1      44.021  23.062  19.724  0.00  0.00    +0.468 C 
ATOM     19  O   UNL     1      43.948  24.089  19.075  0.00  0.00    -0.416 OA
ATOM     20  O   UNL     1      46.707  22.952  22.175  0.00  0.00    -0.173 OA
ENDROOT
BRANCH   7   8
ATOM      8  O   UNL     1      42.490  18.451  20.457  0.00  0.00    -0.478 OA
ATOM      9  H   UNL     1      41.667  17.984  20.659  0.00  0.00    +0.402 HD
ENDBRANCH   7   8
BRANCH  12  13
ATOM     13  O   UNL     1      41.714  23.401  18.191  0.00  0.00    -0.474 OA
ATOM     14  H   UNL     1      42.296  23.589  17.442  0.00  0.00    +0.398 HD
ENDBRANCH  12  13
TORSDOF 2
ENDMDL
MODEL 2
REMARK VINA RESULT:      -5.5      1.424      3.641
REMARK  Name = ZINC14490611
REMARK  3 active torsions:
REMARK  status: ('A' for Active; 'I' for Inactive)
REMARK    1  A    between atoms: C1_1  and  C2_2
REMARK    2  A    between atoms: C8_10  and  O5_18
REMARK    3  A    between atoms: C11_13  and  O4_17
REMARK                            x       y       z     vdW  Elec       q    Type
REMARK                         _______ _______ _______ _____ _____    ______ ____
ROOT
ATOM      1  C   UNL     1      46.477  18.389  21.833  0.00  0.00    +0.203 C 
ATOM      2  C   UNL     1      46.249  19.756  21.240  0.00  0.00    +0.103 A 
ATOM      3  C   UNL     1      45.071  20.239  20.815  0.00  0.00    -0.254 A 
ATOM      4  C   UNL     1      45.352  21.615  20.318  0.00  0.00    -0.247 A 
ATOM      5  C   UNL     1      44.268  22.443  19.771  0.00  0.00    +0.471 C 
ATOM      6  C   UNL     1      42.968  21.772  19.525  0.00  0.00    -0.130 A 
ATOM      7  C   UNL     1      41.984  22.459  18.805  0.00  0.00    +0.148 A 
ATOM     10  C   UNL     1      40.756  21.858  18.556  0.00  0.00    +0.039 A 
ATOM     11  C   UNL     1      40.496  20.585  19.014  0.00  0.00    +0.040 A 
ATOM     12  C   UNL     1      41.459  19.885  19.733  0.00  0.00    +0.147 A 
ATOM     15  C   UNL     1      42.703  20.471  19.994  0.00  0.00    -0.128 A 
ATOM     16  O   UNL     1      44.429  23.626  19.533  0.00  0.00    -0.421 OA
ATOM     17  C   UNL     1      46.668  21.808  20.499  0.00  0.00    +0.302 A 
ATOM     18  C   UNL     1      43.706  19.696  20.763  0.00  0.00    +0.468 C 
ATOM     19  O   UNL     1      43.414  18.657  21.326  0.00  0.00    -0.416 OA
ATOM     20  O   UNL     1      47.192  20.697  21.048  0.00  0.00    -0.173 OA
ENDROOT
BRANCH   7   8
ATOM      8  O   UNL     1      42.230  23.713  18.350  0.00  0.00    -0.478 OA
ATOM      9  H   UNL     1      42.731  24.264  18.967  0.00  0.00    +0.402 HD
ENDBRANCH   7   8
BRANCH  12  13
ATOM     13  O   UNL     1      41.193  18.632  20.180  0.00  0.00    -0.474 OA
ATOM     14  H   UNL     1      41.775  18.337  20.895  0.00  0.00    +0.398 HD
ENDBRANCH  12  13
TORSDOF 2
ENDMDL
MODEL 3
REMARK VINA RESULT:      -5.4     20.279     22.222
REMARK  Name = ZINC14490611
REMARK  3 active torsions:
REMARK  status: ('A' for Active; 'I' for Inactive)
REMARK    1  A    between atoms: C1_1  and  C2_2
REMARK    2  A    between atoms: C8_10  and  O5_18
REMARK    3  A    between atoms: C11_13  and  O4_17
REMARK                            x       y       z     vdW  Elec       q    Type
REMARK                         _______ _______ _______ _____ _____    ______ ____
ROOT
ATOM      1  C   UNL     1      51.855  31.903   0.232  0.00  0.00    +0.203 C 
ATOM      2  C   UNL     1      53.067  32.031   1.119  0.00  0.00    +0.103 A 
ATOM      3  C   UNL     1      53.055  32.361   2.420  0.00  0.00    -0.254 A 
ATOM      4  C   UNL     1      54.481  32.357   2.853  0.00  0.00    -0.247 A 
ATOM      5  C   UNL     1      54.835  32.681   4.242  0.00  0.00    +0.471 C 
ATOM      6  C   UNL     1      53.758  33.230   5.101  0.00  0.00    -0.130 A 
ATOM      7  C   UNL     1      54.099  33.757   6.352  0.00  0.00    +0.148 A 
ATOM     10  C   UNL     1      53.113  34.280   7.180  0.00  0.00    +0.039 A 
ATOM     11  C   UNL     1      51.795  34.285   6.780  0.00  0.00    +0.040 A 
ATOM     12  C   UNL     1      51.434  33.766   5.541  0.00  0.00    +0.147 A 
ATOM     15  C   UNL     1      52.410  33.234   4.691  0.00  0.00    -0.128 A 
ATOM     16  O   UNL     1      55.962  32.506   4.668  0.00  0.00    -0.421 OA
ATOM     17  C   UNL     1      55.193  32.024   1.766  0.00  0.00    +0.302 A 
ATOM     18  C   UNL     1      51.990  32.689   3.378  0.00  0.00    +0.468 C 
ATOM     19  O   UNL     1      50.815  32.522   3.105  0.00  0.00    -0.416 OA
ATOM     20  O   UNL     1      54.343  31.832   0.740  0.00  0.00    -0.173 OA
ENDROOT
BRANCH   7   8
ATOM      8  O   UNL     1      55.394  33.756   6.756  0.00  0.00    -0.478 OA
ATOM      9  H   UNL     1      56.027  33.937   6.047  0.00  0.00    +0.402 HD
ENDBRANCH   7   8
BRANCH  12  13
ATOM     13  O   UNL     1      50.132  33.775   5.156  0.00  0.00    -0.474 OA
ATOM     14  H   UNL     1      49.872  33.005   4.632  0.00  0.00    +0.398 HD
ENDBRANCH  12  13
TORSDOF 2
ENDMDL
MODEL 4
REMARK VINA RESULT:      -5.3     20.192     22.287
REMARK  Name = ZINC14490611
REMARK  3 active torsions:
REMARK  status: ('A' for Active; 'I' for Inactive)
REMARK    1  A    between atoms: C1_1  and  C2_2
REMARK    2  A    between atoms: C8_10  and  O5_18
REMARK    3  A    between atoms: C11_13  and  O4_17
REMARK                            x       y       z     vdW  Elec       q    Type
REMARK                         _______ _______ _______ _____ _____    ______ ____
ROOT
ATOM      1  C   UNL     1      57.034  31.398   2.444  0.00  0.00    +0.203 C 
ATOM      2  C   UNL     1      55.579  31.712   2.210  0.00  0.00    +0.103 A 
ATOM      3  C   UNL     1      54.760  32.328   3.076  0.00  0.00    -0.254 A 
ATOM      4  C   UNL     1      53.436  32.408   2.397  0.00  0.00    -0.247 A 
ATOM      5  C   UNL     1      52.291  33.034   3.075  0.00  0.00    +0.471 C 
ATOM      6  C   UNL     1      52.454  33.353   4.514  0.00  0.00    -0.130 A 
ATOM      7  C   UNL     1      51.327  33.740   5.248  0.00  0.00    +0.148 A 
ATOM     10  C   UNL     1      51.444  34.045   6.598  0.00  0.00    +0.039 A 
ATOM     11  C   UNL     1      52.668  33.969   7.227  0.00  0.00    +0.040 A 
ATOM     12  C   UNL     1      53.802  33.588   6.516  0.00  0.00    +0.147 A 
ATOM     15  C   UNL     1      53.705  33.276   5.156  0.00  0.00    -0.128 A 
ATOM     16  O   UNL     1      51.258  33.279   2.481  0.00  0.00    -0.421 OA
ATOM     17  C   UNL     1      53.604  31.832   1.197  0.00  0.00    +0.302 A 
ATOM     18  C   UNL     1      54.934  32.873   4.430  0.00  0.00    +0.468 C 
ATOM     19  O   UNL     1      56.037  32.989   4.932  0.00  0.00    -0.416 OA
ATOM     20  O   UNL     1      54.882  31.421   1.095  0.00  0.00    -0.173 OA
ENDROOT
BRANCH   7   8
ATOM      8  O   UNL     1      50.117  33.818   4.638  0.00  0.00    -0.478 OA
ATOM      9  H   UNL     1      49.446  33.235   5.020  0.00  0.00    +0.402 HD
ENDBRANCH   7   8
BRANCH  12  13
ATOM     13  O   UNL     1      55.003  33.517   7.145  0.00  0.00    -0.474 OA
ATOM     14  H   UNL     1      55.686  33.056   6.638  0.00  0.00    +0.398 HD
ENDBRANCH  12  13
TORSDOF 2
ENDMDL
MODEL 5
REMARK VINA RESULT:      -5.2      4.102      6.183
REMARK  Name = ZINC14490611
REMARK  3 active torsions:
REMARK  status: ('A' for Active; 'I' for Inactive)
REMARK    1  A    between atoms: C1_1  and  C2_2
REMARK    2  A    between atoms: C8_10  and  O5_18
REMARK    3  A    between atoms: C11_13  and  O4_17
REMARK                            x       y       z     vdW  Elec       q    Type
REMARK                         _______ _______ _______ _____ _____    ______ ____
ROOT
ATOM      1  C   UNL     1      46.889  13.623  19.853  0.00  0.00    +0.203 C 
ATOM      2  C   UNL     1      45.941  14.387  20.741  0.00  0.00    +0.103 A 
ATOM      3  C   UNL     1      45.390  15.578  20.459  0.00  0.00    -0.254 A 
ATOM      4  C   UNL     1      44.535  15.918  21.631  0.00  0.00    -0.247 A 
ATOM      5  C   UNL     1      43.775  17.176  21.655  0.00  0.00    +0.471 C 
ATOM      6  C   UNL     1      44.082  18.168  20.596  0.00  0.00    -0.130 A 
ATOM      7  C   UNL     1      43.549  19.457  20.709  0.00  0.00    +0.148 A 
ATOM     10  C   UNL     1      43.819  20.411  19.734  0.00  0.00    +0.039 A 
ATOM     11  C   UNL     1      44.611  20.097  18.651  0.00  0.00    +0.040 A 
ATOM     12  C   UNL     1      45.149  18.822  18.519  0.00  0.00    +0.147 A 
ATOM     15  C   UNL     1      44.891  17.847  19.489  0.00  0.00    -0.128 A 
ATOM     16  O   UNL     1      42.932  17.393  22.505  0.00  0.00    -0.421 OA
ATOM     17  C   UNL     1      44.665  14.894  22.488  0.00  0.00    +0.302 A 
ATOM     18  C   UNL     1      45.482  16.497  19.316  0.00  0.00    +0.468 C 
ATOM     19  O   UNL     1      46.019  16.166  18.275  0.00  0.00    -0.416 OA
ATOM     20  O   UNL     1      45.503  13.989  21.950  0.00  0.00    -0.173 OA
ENDROOT
BRANCH   7   8
ATOM      8  O   UNL     1      42.768  19.776  21.771  0.00  0.00    -0.478 OA
ATOM      9  H   UNL     1      43.204  20.341  22.425  0.00  0.00    +0.402 HD
ENDBRANCH   7   8
BRANCH  12  13
ATOM     13  O   UNL     1      45.927  18.523  17.448  0.00  0.00    -0.474 OA
ATOM     14  H   UNL     1      46.821  18.891  17.495  0.00  0.00    +0.398 HD
ENDBRANCH  12  13
TORSDOF 2
ENDMDL
MODEL 6
REMARK VINA RESULT:      -5.2      4.757      6.043
REMARK  Name = ZINC14490611
REMARK  3 active torsions:
REMARK  status: ('A' for Active; 'I' for Inactive)
REMARK    1  A    between atoms: C1_1  and  C2_2
REMARK    2  A    between atoms: C8_10  and  O5_18
REMARK    3  A    between atoms: C11_13  and  O4_17
REMARK                            x       y       z     vdW  Elec       q    Type
REMARK                         _______ _______ _______ _____ _____    ______ ____
ROOT
ATOM      1  C   UNL     1      44.366  20.868  19.312  0.00  0.00    +0.203 C 
ATOM      2  C   UNL     1      44.289  19.527  19.995  0.00  0.00    +0.103 A 
ATOM      3  C   UNL     1      44.883  18.399  19.578  0.00  0.00    -0.254 A 
ATOM      4  C   UNL     1      44.515  17.353  20.574  0.00  0.00    -0.247 A 
ATOM      5  C   UNL     1      45.004  15.975  20.419  0.00  0.00    +0.471 C 
ATOM      6  C   UNL     1      45.660  15.636  19.133  0.00  0.00    -0.130 A 
ATOM      7  C   UNL     1      45.938  14.292  18.856  0.00  0.00    +0.148 A 
ATOM     10  C   UNL     1      46.552  13.939  17.660  0.00  0.00    +0.039 A 
ATOM     11  C   UNL     1      46.891  14.906  16.738  0.00  0.00    +0.040 A 
ATOM     12  C   UNL     1      46.624  16.247  16.994  0.00  0.00    +0.147 A 
ATOM     15  C   UNL     1      46.007  16.624  18.192  0.00  0.00    -0.128 A 
ATOM     16  O   UNL     1      44.876  15.152  21.306  0.00  0.00    -0.421 OA
ATOM     17  C   UNL     1      43.740  17.968  21.481  0.00  0.00    +0.302 A 
ATOM     18  C   UNL     1      45.738  18.062  18.431  0.00  0.00    +0.468 C 
ATOM     19  O   UNL     1      46.203  18.925  17.710  0.00  0.00    -0.416 OA
ATOM     20  O   UNL     1      43.612  19.260  21.128  0.00  0.00    -0.173 OA
ENDROOT
BRANCH   7   8
ATOM      8  O   UNL     1      45.609  13.333  19.757  0.00  0.00    -0.478 OA
ATOM      9  H   UNL     1      46.131  12.523  19.678  0.00  0.00    +0.402 HD
ENDBRANCH   7   8
BRANCH  12  13
ATOM     13  O   UNL     1      46.963  17.191  16.079  0.00  0.00    -0.474 OA
ATOM     14  H   UNL     1      47.842  17.067  15.694  0.00  0.00    +0.398 HD
ENDBRANCH  12  13
TORSDOF 2
ENDMDL
MODEL 7
REMARK VINA RESULT:      -5.1     20.612     21.990
REMARK  Name = ZINC14490611
REMARK  3 active torsions:
REMARK  status: ('A' for Active; 'I' for Inactive)
REMARK    1  A    between atoms: C1_1  and  C2_2
REMARK    2  A    between atoms: C8_10  and  O5_18
REMARK    3  A    between atoms: C11_13  and  O4_17
REMARK                            x       y       z     vdW  Elec       q    Type
REMARK                         _______ _______ _______ _____ _____    ______ ____
ROOT
ATOM      1  C   UNL     1      57.779  32.538   3.559  0.00  0.00    +0.203 C 
ATOM      2  C   UNL     1      56.699  32.923   4.537  0.00  0.00    +0.103 A 
ATOM      3  C   UNL     1      55.379  32.776   4.345  0.00  0.00    -0.254 A 
ATOM      4  C   UNL     1      54.728  33.295   5.581  0.00  0.00    -0.247 A 
ATOM      5  C   UNL     1      53.264  33.285   5.709  0.00  0.00    +0.471 C 
ATOM      6  C   UNL     1      52.484  32.965   4.489  0.00  0.00    -0.130 A 
ATOM      7  C   UNL     1      51.099  33.160   4.508  0.00  0.00    +0.148 A 
ATOM     10  C   UNL     1      50.338  32.872   3.381  0.00  0.00    +0.039 A 
ATOM     11  C   UNL     1      50.940  32.392   2.237  0.00  0.00    +0.040 A 
ATOM     12  C   UNL     1      52.315  32.190   2.197  0.00  0.00    +0.147 A 
ATOM     15  C   UNL     1      53.099  32.475   3.321  0.00  0.00    -0.128 A 
ATOM     16  O   UNL     1      52.718  33.527   6.769  0.00  0.00    -0.421 OA
ATOM     17  C   UNL     1      55.729  33.697   6.380  0.00  0.00    +0.302 A 
ATOM     18  C   UNL     1      54.563  32.247   3.243  0.00  0.00    +0.468 C 
ATOM     19  O   UNL     1      55.065  31.651   2.308  0.00  0.00    -0.416 OA
ATOM     20  O   UNL     1      56.896  33.472   5.750  0.00  0.00    -0.173 OA
ENDROOT
BRANCH   7   8
ATOM      8  O   UNL     1      50.497  33.632   5.629  0.00  0.00    -0.478 OA
ATOM      9  H   UNL     1      50.803  34.508   5.901  0.00  0.00    +0.402 HD
ENDBRANCH   7   8
BRANCH  12  13
ATOM     13  O   UNL     1      52.898  31.717   1.066  0.00  0.00    -0.474 OA
ATOM     14  H   UNL     1      53.377  30.886   1.189  0.00  0.00    +0.398 HD
ENDBRANCH  12  13
TORSDOF 2
ENDMDL
MODEL 8
REMARK VINA RESULT:      -5.0      4.349      6.713
REMARK  Name = ZINC14490611
REMARK  3 active torsions:
REMARK  status: ('A' for Active; 'I' for Inactive)
REMARK    1  A    between atoms: C1_1  and  C2_2
REMARK    2  A    between atoms: C8_10  and  O5_18
REMARK    3  A    between atoms: C11_13  and  O4_17
REMARK                            x       y       z     vdW  Elec       q    Type
REMARK                         _______ _______ _______ _____ _____    ______ ____
ROOT
ATOM      1  C   UNL     1      46.457  13.342  18.693  0.00  0.00    +0.203 C 
ATOM      2  C   UNL     1      46.362  14.785  18.270  0.00  0.00    +0.103 A 
ATOM      3  C   UNL     1      45.796  15.774  18.979  0.00  0.00    -0.254 A 
ATOM      4  C   UNL     1      45.948  17.005  18.153  0.00  0.00    -0.247 A 
ATOM      5  C   UNL     1      45.430  18.293  18.637  0.00  0.00    +0.471 C 
ATOM      6  C   UNL     1      44.564  18.260  19.840  0.00  0.00    -0.130 A 
ATOM      7  C   UNL     1      43.874  19.422  20.203  0.00  0.00    +0.148 A 
ATOM     10  C   UNL     1      43.053  19.425  21.324  0.00  0.00    +0.039 A 
ATOM     11  C   UNL     1      42.911  18.286  22.088  0.00  0.00    +0.040 A 
ATOM     12  C   UNL     1      43.589  17.121  21.746  0.00  0.00    +0.147 A 
ATOM     15  C   UNL     1      44.420  17.097  20.621  0.00  0.00    -0.128 A 
ATOM     16  O   UNL     1      45.701  19.338  18.076  0.00  0.00    -0.421 OA
ATOM     17  C   UNL     1      46.589  16.621  17.038  0.00  0.00    +0.302 A 
ATOM     18  C   UNL     1      45.127  15.836  20.286  0.00  0.00    +0.468 C 
ATOM     19  O   UNL     1      45.152  14.896  21.058  0.00  0.00    -0.416 OA
ATOM     20  O   UNL     1      46.830  15.299  17.117  0.00  0.00    -0.173 OA
ENDROOT
BRANCH   7   8
ATOM      8  O   UNL     1      44.007  20.548  19.457  0.00  0.00    -0.478 OA
ATOM      9  H   UNL     1      43.740  20.442  18.533  0.00  0.00    +0.402 HD
ENDBRANCH   7   8
BRANCH  12  13
ATOM     13  O   UNL     1      43.443  16.006  22.505  0.00  0.00    -0.474 OA
ATOM     14  H   UNL     1      42.537  15.666  22.535  0.00  0.00    +0.398 HD
ENDBRANCH  12  13
TORSDOF 2
ENDMDL
MODEL 9
REMARK VINA RESULT:      -4.9      7.001      8.861
REMARK  Name = ZINC14490611
REMARK  3 active torsions:
REMARK  status: ('A' for Active; 'I' for Inactive)
REMARK    1  A    between atoms: C1_1  and  C2_2
REMARK    2  A    between atoms: C8_10  and  O5_18
REMARK    3  A    between atoms: C11_13  and  O4_17
REMARK                            x       y       z     vdW  Elec       q    Type
REMARK                         _______ _______ _______ _____ _____    ______ ____
ROOT
ATOM      1  C   UNL     1      47.192  15.876  20.117  0.00  0.00    +0.203 C 
ATOM      2  C   UNL     1      48.269  15.793  19.065  0.00  0.00    +0.103 A 
ATOM      3  C   UNL     1      49.085  16.793  18.698  0.00  0.00    -0.254 A 
ATOM      4  C   UNL     1      49.966  16.230  17.637  0.00  0.00    -0.247 A 
ATOM      5  C   UNL     1      50.994  17.068  17.003  0.00  0.00    +0.471 C 
ATOM      6  C   UNL     1      50.949  18.522  17.293  0.00  0.00    -0.130 A 
ATOM      7  C   UNL     1      51.761  19.381  16.545  0.00  0.00    +0.148 A 
ATOM     10  C   UNL     1      51.742  20.749  16.790  0.00  0.00    +0.039 A 
ATOM     11  C   UNL     1      50.926  21.271  17.771  0.00  0.00    +0.040 A 
ATOM     12  C   UNL     1      50.112  20.434  18.527  0.00  0.00    +0.147 A 
ATOM     15  C   UNL     1      50.116  19.054  18.296  0.00  0.00    -0.128 A 
ATOM     16  O   UNL     1      51.843  16.590  16.274  0.00  0.00    -0.421 OA
ATOM     17  C   UNL     1      49.583  14.953  17.483  0.00  0.00    +0.302 A 
ATOM     18  C   UNL     1      49.235  18.193  19.122  0.00  0.00    +0.468 C 
ATOM     19  O   UNL     1      48.662  18.624  20.105  0.00  0.00    -0.416 OA
ATOM     20  O   UNL     1      48.574  14.703  18.336  0.00  0.00    -0.173 OA
ENDROOT
BRANCH   7   8
ATOM      8  O   UNL     1      52.568  18.878  15.577  0.00  0.00    -0.478 OA
ATOM      9  H   UNL     1      52.580  19.400  14.763  0.00  0.00    +0.402 HD
ENDBRANCH   7   8
BRANCH  12  13
ATOM     13  O   UNL     1      49.313  20.958  19.491  0.00  0.00    -0.474 OA
ATOM     14  H   UNL     1      48.373  20.764  19.371  0.00  0.00    +0.398 HD
ENDBRANCH  12  13
TORSDOF 2
ENDMDL
