MODEL 1
REMARK VINA RESULT:      -5.1      0.000      0.000
REMARK  Name = ZINC95486018
REMARK  16 active torsions:
REMARK  status: ('A' for Active; 'I' for Inactive)
REMARK    1  A    between atoms: C1_1  and  C2_2
REMARK    2  A    between atoms: C4_4  and  O5_35
REMARK    3  A    between atoms: C7_7  and  C8_8
REMARK    4  A    between atoms: C9_9  and  O2_25
REMARK    5  A    between atoms: C11_11  and  O1_23
REMARK    6  A    between atoms: C15_15  and  C20_22
REMARK    7  A    between atoms: N1_17  and  C19_21
REMARK    8  A    between atoms: C16_18  and  C17_19
REMARK    9  A    between atoms: C16_18  and  C18_20
REMARK   10  A    between atoms: O1_23  and  C21_24
REMARK   11  A    between atoms: O2_25  and  C22_26
REMARK   12  A    between atoms: C24_28  and  O4_33
REMARK   13  A    between atoms: C26_30  and  O3_31
REMARK   14  A    between atoms: O3_31  and  C27_32
REMARK   15  A    between atoms: O4_33  and  C28_34
REMARK   16  A    between atoms: O5_35  and  C29_36
REMARK                            x       y       z     vdW  Elec       q    Type
REMARK                         _______ _______ _______ _____ _____    ______ ____
ROOT
ATOM     18  C   UNL     1      48.645  16.294  18.801  0.00  0.00    -0.077 A 
ATOM     19  C   UNL     1      47.885  16.304  19.974  0.00  0.00    +0.209 A 
ATOM     22  C   UNL     1      47.971  17.383  20.836  0.00  0.00    -0.147 A 
ATOM     23  C   UNL     1      48.805  18.446  20.531  0.00  0.00    +0.202 A 
ATOM     26  C   UNL     1      49.564  18.440  19.363  0.00  0.00    -0.195 A 
ATOM     27  C   UNL     1      50.452  19.623  19.077  0.00  0.00    +0.130 C 
ATOM     28  C   UNL     1      51.135  20.065  20.374  0.00  0.00    +0.102 C 
ATOM     29  C   UNL     1      49.602  20.775  18.538  0.00  0.00    +0.097 C 
ATOM     30  N   UNL     1      51.486  19.266  18.097  0.00  0.00    -0.378 N 
ATOM     31  H   UNL     1      52.109  18.576  18.490  0.00  0.00    +0.422 HD
ATOM     32  C   UNL     1      52.247  20.466  17.728  0.00  0.00    +0.319 C 
ATOM     33  C   UNL     1      50.831  18.712  16.901  0.00  0.00    +0.166 C 
ATOM     34  C   UNL     1      51.839  18.621  15.755  0.00  0.00    +0.092 C 
ATOM     35  C   UNL     1      50.305  17.316  17.237  0.00  0.00    +0.137 C 
ATOM     36  C   UNL     1      49.491  17.367  18.503  0.00  0.00    -0.001 A 
ENDROOT
BRANCH  18  17
ATOM      1  C   UNL     1      46.587  16.238  16.794  0.00  0.00    +0.093 C 
ATOM      2  C   UNL     1      47.573  15.104  16.902  0.00  0.00    +0.014 A 
ATOM      3  C   UNL     1      47.486  14.031  16.022  0.00  0.00    -0.122 A 
ATOM      4  C   UNL     1      48.374  12.980  16.097  0.00  0.00    +0.199 A 
ATOM      7  C   UNL     1      49.386  12.984  17.077  0.00  0.00    -0.135 A 
ATOM      8  C   UNL     1      49.481  14.073  17.976  0.00  0.00    +0.083 A 
ATOM      9  C   UNL     1      50.488  14.078  18.951  0.00  0.00    -0.084 A 
ATOM     10  C   UNL     1      51.374  13.024  19.022  0.00  0.00    +0.196 A 
ATOM     13  C   UNL     1      51.278  11.952  18.134  0.00  0.00    -0.183 A 
ATOM     14  C   UNL     1      50.306  11.922  17.175  0.00  0.00    +0.217 A 
ATOM     17  C   UNL     1      48.559  15.143  17.873  0.00  0.00    -0.112 A 
BRANCH   4   5
ATOM      5  O   UNL     1      48.271  11.941  15.230  0.00  0.00    -0.288 OA
ATOM      6  C   UNL     1      46.964  11.406  15.008  0.00  0.00    +0.245 C 
ENDBRANCH   4   5
BRANCH  10  11
ATOM     11  O   UNL     1      52.350  13.030  19.968  0.00  0.00    -0.313 OA
ATOM     12  C   UNL     1      53.700  12.967  19.505  0.00  0.00    +0.245 C 
ENDBRANCH  10  11
BRANCH  14  15
ATOM     15  O   UNL     1      50.226  10.870  16.319  0.00  0.00    -0.285 OA
ATOM     16  C   UNL     1      51.450  10.402  15.750  0.00  0.00    +0.246 C 
ENDBRANCH  14  15
ENDBRANCH  18  17
BRANCH  19  20
ATOM     20  O   UNL     1      47.066  15.260  20.266  0.00  0.00    -0.291 OA
ATOM     21  C   UNL     1      45.662  15.526  20.302  0.00  0.00    +0.251 C 
ENDBRANCH  19  20
BRANCH  23  24
ATOM     24  O   UNL     1      48.884  19.504  21.380  0.00  0.00    -0.307 OA
ATOM     25  C   UNL     1      47.655  20.127  21.756  0.00  0.00    +0.251 C 
ENDBRANCH  23  24
TORSDOF 6
ENDMDL
MODEL 2
REMARK VINA RESULT:      -4.9      2.684      6.905
REMARK  Name = ZINC95486018
REMARK  16 active torsions:
REMARK  status: ('A' for Active; 'I' for Inactive)
REMARK    1  A    between atoms: C1_1  and  C2_2
REMARK    2  A    between atoms: C4_4  and  O5_35
REMARK    3  A    between atoms: C7_7  and  C8_8
REMARK    4  A    between atoms: C9_9  and  O2_25
REMARK    5  A    between atoms: C11_11  and  O1_23
REMARK    6  A    between atoms: C15_15  and  C20_22
REMARK    7  A    between atoms: N1_17  and  C19_21
REMARK    8  A    between atoms: C16_18  and  C17_19
REMARK    9  A    between atoms: C16_18  and  C18_20
REMARK   10  A    between atoms: O1_23  and  C21_24
REMARK   11  A    between atoms: O2_25  and  C22_26
REMARK   12  A    between atoms: C24_28  and  O4_33
REMARK   13  A    between atoms: C26_30  and  O3_31
REMARK   14  A    between atoms: O3_31  and  C27_32
REMARK   15  A    between atoms: O4_33  and  C28_34
REMARK   16  A    between atoms: O5_35  and  C29_36
REMARK                            x       y       z     vdW  Elec       q    Type
REMARK                         _______ _______ _______ _____ _____    ______ ____
ROOT
ATOM     18  C   UNL     1      49.920  14.942  18.311  0.00  0.00    -0.077 A 
ATOM     19  C   UNL     1      50.941  15.013  19.264  0.00  0.00    +0.209 A 
ATOM     22  C   UNL     1      51.958  14.074  19.249  0.00  0.00    -0.147 A 
ATOM     23  C   UNL     1      51.960  13.074  18.291  0.00  0.00    +0.202 A 
ATOM     26  C   UNL     1      50.945  13.000  17.339  0.00  0.00    -0.195 A 
ATOM     27  C   UNL     1      50.998  11.895  16.316  0.00  0.00    +0.130 C 
ATOM     28  C   UNL     1      51.437  10.598  16.999  0.00  0.00    +0.102 C 
ATOM     29  C   UNL     1      52.012  12.260  15.230  0.00  0.00    +0.097 C 
ATOM     30  N   UNL     1      49.674  11.688  15.714  0.00  0.00    -0.378 N 
ATOM     31  H   UNL     1      49.027  11.351  16.411  0.00  0.00    +0.422 HD
ATOM     32  C   UNL     1      49.781  10.709  14.624  0.00  0.00    +0.319 C 
ATOM     33  C   UNL     1      49.195  12.972  15.177  0.00  0.00    +0.166 C 
ATOM     34  C   UNL     1      47.979  12.735  14.280  0.00  0.00    +0.092 C 
ATOM     35  C   UNL     1      48.802  13.872  16.348  0.00  0.00    +0.137 C 
ATOM     36  C   UNL     1      49.925  13.925  17.352  0.00  0.00    -0.001 A 
ENDROOT
BRANCH  18  17
ATOM      1  C   UNL     1      50.206  17.371  16.800  0.00  0.00    +0.093 C 
ATOM      2  C   UNL     1      48.953  17.116  17.597  0.00  0.00    +0.014 A 
ATOM      3  C   UNL     1      47.933  18.060  17.594  0.00  0.00    -0.122 A 
ATOM      4  C   UNL     1      46.776  17.854  18.314  0.00  0.00    +0.199 A 
ATOM      7  C   UNL     1      46.618  16.674  19.066  0.00  0.00    -0.135 A 
ATOM      8  C   UNL     1      47.653  15.708  19.074  0.00  0.00    +0.083 A 
ATOM      9  C   UNL     1      47.495  14.533  19.822  0.00  0.00    -0.084 A 
ATOM     10  C   UNL     1      46.336  14.332  20.540  0.00  0.00    +0.196 A 
ATOM     13  C   UNL     1      45.317  15.285  20.531  0.00  0.00    -0.183 A 
ATOM     14  C   UNL     1      45.445  16.439  19.811  0.00  0.00    +0.217 A 
ATOM     17  C   UNL     1      48.828  15.942  18.321  0.00  0.00    -0.112 A 
BRANCH   4   5
ATOM      5  O   UNL     1      45.792  18.789  18.299  0.00  0.00    -0.288 OA
ATOM      6  C   UNL     1      46.155  20.121  18.667  0.00  0.00    +0.245 C 
ENDBRANCH   4   5
BRANCH  10  11
ATOM     11  O   UNL     1      46.185  13.192  21.265  0.00  0.00    -0.313 OA
ATOM     12  C   UNL     1      45.236  13.226  22.333  0.00  0.00    +0.245 C 
ENDBRANCH  10  11
BRANCH  14  15
ATOM     15  O   UNL     1      44.444  17.357  19.813  0.00  0.00    -0.285 OA
ATOM     16  C   UNL     1      43.914  17.736  21.085  0.00  0.00    +0.246 C 
ENDBRANCH  14  15
ENDBRANCH  18  17
BRANCH  19  20
ATOM     20  O   UNL     1      50.934  15.998  20.200  0.00  0.00    -0.291 OA
ATOM     21  C   UNL     1      51.998  16.951  20.146  0.00  0.00    +0.251 C 
ENDBRANCH  19  20
BRANCH  23  24
ATOM     24  O   UNL     1      52.962  12.156  18.279  0.00  0.00    -0.307 OA
ATOM     25  C   UNL     1      53.998  12.314  19.249  0.00  0.00    +0.251 C 
ENDBRANCH  23  24
TORSDOF 6
ENDMDL
MODEL 3
REMARK VINA RESULT:      -4.9      1.478      3.440
REMARK  Name = ZINC95486018
REMARK  16 active torsions:
REMARK  status: ('A' for Active; 'I' for Inactive)
REMARK    1  A    between atoms: C1_1  and  C2_2
REMARK    2  A    between atoms: C4_4  and  O5_35
REMARK    3  A    between atoms: C7_7  and  C8_8
REMARK    4  A    between atoms: C9_9  and  O2_25
REMARK    5  A    between atoms: C11_11  and  O1_23
REMARK    6  A    between atoms: C15_15  and  C20_22
REMARK    7  A    between atoms: N1_17  and  C19_21
REMARK    8  A    between atoms: C16_18  and  C17_19
REMARK    9  A    between atoms: C16_18  and  C18_20
REMARK   10  A    between atoms: O1_23  and  C21_24
REMARK   11  A    between atoms: O2_25  and  C22_26
REMARK   12  A    between atoms: C24_28  and  O4_33
REMARK   13  A    between atoms: C26_30  and  O3_31
REMARK   14  A    between atoms: O3_31  and  C27_32
REMARK   15  A    between atoms: O4_33  and  C28_34
REMARK   16  A    between atoms: O5_35  and  C29_36
REMARK                            x       y       z     vdW  Elec       q    Type
REMARK                         _______ _______ _______ _____ _____    ______ ____
ROOT
ATOM     18  C   UNL     1      50.653  16.236  19.325  0.00  0.00    -0.077 A 
ATOM     19  C   UNL     1      50.318  16.151  20.680  0.00  0.00    +0.209 A 
ATOM     22  C   UNL     1      50.299  17.299  21.453  0.00  0.00    -0.147 A 
ATOM     23  C   UNL     1      50.609  18.522  20.881  0.00  0.00    +0.202 A 
ATOM     26  C   UNL     1      50.942  18.610  19.531  0.00  0.00    -0.195 A 
ATOM     27  C   UNL     1      51.265  19.966  18.959  0.00  0.00    +0.130 C 
ATOM     28  C   UNL     1      52.119  20.746  19.961  0.00  0.00    +0.102 C 
ATOM     29  C   UNL     1      49.964  20.730  18.705  0.00  0.00    +0.097 C 
ATOM     30  N   UNL     1      52.016  19.829  17.704  0.00  0.00    -0.378 N 
ATOM     31  H   UNL     1      52.918  19.414  17.886  0.00  0.00    +0.422 HD
ATOM     32  C   UNL     1      52.195  21.152  17.093  0.00  0.00    +0.319 C 
ATOM     33  C   UNL     1      51.253  18.964  16.790  0.00  0.00    +0.166 C 
ATOM     34  C   UNL     1      51.844  19.051  15.382  0.00  0.00    +0.092 C 
ATOM     35  C   UNL     1      51.339  17.524  17.296  0.00  0.00    +0.137 C 
ATOM     36  C   UNL     1      50.971  17.473  18.757  0.00  0.00    -0.001 A 
ENDROOT
BRANCH  18  17
ATOM      1  C   UNL     1      52.994  14.567  19.315  0.00  0.00    +0.093 C 
ATOM      2  C   UNL     1      51.797  14.200  18.477  0.00  0.00    +0.014 A 
ATOM      3  C   UNL     1      51.828  13.047  17.702  0.00  0.00    -0.122 A 
ATOM      4  C   UNL     1      50.748  12.686  16.926  0.00  0.00    +0.199 A 
ATOM      7  C   UNL     1      49.594  13.493  16.911  0.00  0.00    -0.135 A 
ATOM      8  C   UNL     1      49.555  14.668  17.697  0.00  0.00    +0.083 A 
ATOM      9  C   UNL     1      48.406  15.471  17.683  0.00  0.00    -0.084 A 
ATOM     10  C   UNL     1      47.328  15.106  16.906  0.00  0.00    +0.196 A 
ATOM     13  C   UNL     1      47.368  13.946  16.131  0.00  0.00    -0.183 A 
ATOM     14  C   UNL     1      48.476  13.146  16.126  0.00  0.00    +0.217 A 
ATOM     17  C   UNL     1      50.676  15.012  18.491  0.00  0.00    -0.112 A 
BRANCH   4   5
ATOM      5  O   UNL     1      50.799  11.556  16.175  0.00  0.00    -0.288 OA
ATOM      6  C   UNL     1      52.001  11.317  15.441  0.00  0.00    +0.245 C 
ENDBRANCH   4   5
BRANCH  10  11
ATOM     11  O   UNL     1      46.214  15.885  16.892  0.00  0.00    -0.313 OA
ATOM     12  C   UNL     1      46.200  17.009  17.773  0.00  0.00    +0.245 C 
ENDBRANCH  10  11
BRANCH  14  15
ATOM     15  O   UNL     1      48.500  12.020  15.366  0.00  0.00    -0.285 OA
ATOM     16  C   UNL     1      47.243  11.403  15.081  0.00  0.00    +0.246 C 
ENDBRANCH  14  15
ENDBRANCH  18  17
BRANCH  19  20
ATOM     20  O   UNL     1      50.014  14.948  21.234  0.00  0.00    -0.291 OA
ATOM     21  C   UNL     1      48.647  14.723  21.585  0.00  0.00    +0.251 C 
ENDBRANCH  19  20
BRANCH  23  24
ATOM     24  O   UNL     1      50.586  19.645  21.644  0.00  0.00    -0.307 OA
ATOM     25  C   UNL     1      49.410  19.880  22.420  0.00  0.00    +0.251 C 
ENDBRANCH  23  24
TORSDOF 6
ENDMDL
MODEL 4
REMARK VINA RESULT:      -4.8      2.284      5.185
REMARK  Name = ZINC95486018
REMARK  16 active torsions:
REMARK  status: ('A' for Active; 'I' for Inactive)
REMARK    1  A    between atoms: C1_1  and  C2_2
REMARK    2  A    between atoms: C4_4  and  O5_35
REMARK    3  A    between atoms: C7_7  and  C8_8
REMARK    4  A    between atoms: C9_9  and  O2_25
REMARK    5  A    between atoms: C11_11  and  O1_23
REMARK    6  A    between atoms: C15_15  and  C20_22
REMARK    7  A    between atoms: N1_17  and  C19_21
REMARK    8  A    between atoms: C16_18  and  C17_19
REMARK    9  A    between atoms: C16_18  and  C18_20
REMARK   10  A    between atoms: O1_23  and  C21_24
REMARK   11  A    between atoms: O2_25  and  C22_26
REMARK   12  A    between atoms: C24_28  and  O4_33
REMARK   13  A    between atoms: C26_30  and  O3_31
REMARK   14  A    between atoms: O3_31  and  C27_32
REMARK   15  A    between atoms: O4_33  and  C28_34
REMARK   16  A    between atoms: O5_35  and  C29_36
REMARK                            x       y       z     vdW  Elec       q    Type
REMARK                         _______ _______ _______ _____ _____    ______ ____
ROOT
ATOM     18  C   UNL     1      50.014  15.900  18.496  0.00  0.00    -0.077 A 
ATOM     19  C   UNL     1      50.308  17.091  17.826  0.00  0.00    +0.209 A 
ATOM     22  C   UNL     1      49.396  18.132  17.850  0.00  0.00    -0.147 A 
ATOM     23  C   UNL     1      48.202  17.989  18.538  0.00  0.00    +0.202 A 
ATOM     26  C   UNL     1      47.906  16.803  19.207  0.00  0.00    -0.195 A 
ATOM     27  C   UNL     1      46.596  16.702  19.944  0.00  0.00    +0.130 C 
ATOM     28  C   UNL     1      45.492  17.344  19.099  0.00  0.00    +0.102 C 
ATOM     29  C   UNL     1      46.706  17.445  21.276  0.00  0.00    +0.097 C 
ATOM     30  N   UNL     1      46.249  15.295  20.185  0.00  0.00    -0.378 N 
ATOM     31  H   UNL     1      46.077  14.828  19.307  0.00  0.00    +0.422 HD
ATOM     32  C   UNL     1      45.046  15.225  21.025  0.00  0.00    +0.319 C 
ATOM     33  C   UNL     1      47.372  14.645  20.878  0.00  0.00    +0.166 C 
ATOM     34  C   UNL     1      46.928  13.284  21.415  0.00  0.00    +0.092 C 
ATOM     35  C   UNL     1      48.515  14.457  19.881  0.00  0.00    +0.137 C 
ATOM     36  C   UNL     1      48.804  15.760  19.181  0.00  0.00    -0.001 A 
ENDROOT
BRANCH  18  17
ATOM      1  C   UNL     1      52.012  15.713  20.554  0.00  0.00    +0.093 C 
ATOM      2  C   UNL     1      51.950  14.679  19.460  0.00  0.00    +0.014 A 
ATOM      3  C   UNL     1      52.863  13.631  19.454  0.00  0.00    -0.122 A 
ATOM      4  C   UNL     1      52.831  12.671  18.466  0.00  0.00    +0.199 A 
ATOM      7  C   UNL     1      51.864  12.747  17.444  0.00  0.00    -0.135 A 
ATOM      8  C   UNL     1      50.933  13.811  17.444  0.00  0.00    +0.083 A 
ATOM      9  C   UNL     1      49.970  13.887  16.427  0.00  0.00    -0.084 A 
ATOM     10  C   UNL     1      49.942  12.924  15.442  0.00  0.00    +0.196 A 
ATOM     13  C   UNL     1      50.862  11.875  15.443  0.00  0.00    -0.183 A 
ATOM     14  C   UNL     1      51.810  11.778  16.422  0.00  0.00    +0.217 A 
ATOM     17  C   UNL     1      50.984  14.781  18.474  0.00  0.00    -0.112 A 
BRANCH   4   5
ATOM      5  O   UNL     1      53.732  11.655  18.476  0.00  0.00    -0.288 OA
ATOM      6  C   UNL     1      54.842  11.780  19.367  0.00  0.00    +0.245 C 
ENDBRANCH   4   5
BRANCH  10  11
ATOM     11  O   UNL     1      49.008  12.998  14.456  0.00  0.00    -0.313 OA
ATOM     12  C   UNL     1      47.889  12.117  14.557  0.00  0.00    +0.245 C 
ENDBRANCH  10  11
BRANCH  14  15
ATOM     15  O   UNL     1      52.700  10.751  16.409  0.00  0.00    -0.285 OA
ATOM     16  C   UNL     1      53.311  10.437  15.156  0.00  0.00    +0.246 C 
ENDBRANCH  14  15
ENDBRANCH  18  17
BRANCH  19  20
ATOM     20  O   UNL     1      51.481  17.226  17.155  0.00  0.00    -0.291 OA
ATOM     21  C   UNL     1      51.605  18.353  16.285  0.00  0.00    +0.251 C 
ENDBRANCH  19  20
BRANCH  23  24
ATOM     24  O   UNL     1      47.312  19.015  18.560  0.00  0.00    -0.307 OA
ATOM     25  C   UNL     1      47.778  20.268  19.063  0.00  0.00    +0.251 C 
ENDBRANCH  23  24
TORSDOF 6
ENDMDL
MODEL 5
REMARK VINA RESULT:      -4.6      2.133      7.215
REMARK  Name = ZINC95486018
REMARK  16 active torsions:
REMARK  status: ('A' for Active; 'I' for Inactive)
REMARK    1  A    between atoms: C1_1  and  C2_2
REMARK    2  A    between atoms: C4_4  and  O5_35
REMARK    3  A    between atoms: C7_7  and  C8_8
REMARK    4  A    between atoms: C9_9  and  O2_25
REMARK    5  A    between atoms: C11_11  and  O1_23
REMARK    6  A    between atoms: C15_15  and  C20_22
REMARK    7  A    between atoms: N1_17  and  C19_21
REMARK    8  A    between atoms: C16_18  and  C17_19
REMARK    9  A    between atoms: C16_18  and  C18_20
REMARK   10  A    between atoms: O1_23  and  C21_24
REMARK   11  A    between atoms: O2_25  and  C22_26
REMARK   12  A    between atoms: C24_28  and  O4_33
REMARK   13  A    between atoms: C26_30  and  O3_31
REMARK   14  A    between atoms: O3_31  and  C27_32
REMARK   15  A    between atoms: O4_33  and  C28_34
REMARK   16  A    between atoms: O5_35  and  C29_36
REMARK                            x       y       z     vdW  Elec       q    Type
REMARK                         _______ _______ _______ _____ _____    ______ ____
ROOT
ATOM     18  C   UNL     1      48.918  16.636  18.511  0.00  0.00    -0.077 A 
ATOM     19  C   UNL     1      47.752  16.652  17.740  0.00  0.00    +0.209 A 
ATOM     22  C   UNL     1      47.433  15.553  16.960  0.00  0.00    -0.147 A 
ATOM     23  C   UNL     1      48.267  14.447  16.950  0.00  0.00    +0.202 A 
ATOM     26  C   UNL     1      49.429  14.428  17.719  0.00  0.00    -0.195 A 
ATOM     27  C   UNL     1      50.297  13.198  17.676  0.00  0.00    +0.130 C 
ATOM     28  C   UNL     1      50.382  12.691  16.234  0.00  0.00    +0.102 C 
ATOM     29  C   UNL     1      49.678  12.111  18.556  0.00  0.00    +0.097 C 
ATOM     30  N   UNL     1      51.654  13.509  18.148  0.00  0.00    -0.378 N 
ATOM     31  H   UNL     1      52.101  14.152  17.511  0.00  0.00    +0.422 HD
ATOM     32  C   UNL     1      52.439  12.271  18.232  0.00  0.00    +0.319 C 
ATOM     33  C   UNL     1      51.559  14.124  19.481  0.00  0.00    +0.166 C 
ATOM     34  C   UNL     1      52.945  14.173  20.127  0.00  0.00    +0.092 C 
ATOM     35  C   UNL     1      51.012  15.543  19.326  0.00  0.00    +0.137 C 
ATOM     36  C   UNL     1      49.758  15.519  18.491  0.00  0.00    -0.001 A 
ENDROOT
BRANCH  18  17
ATOM      1  C   UNL     1      47.838  16.856  21.167  0.00  0.00    +0.093 C 
ATOM      2  C   UNL     1      48.754  17.924  20.629  0.00  0.00    +0.014 A 
ATOM      3  C   UNL     1      49.078  19.016  21.425  0.00  0.00    -0.122 A 
ATOM      4  C   UNL     1      49.913  20.009  20.960  0.00  0.00    +0.199 A 
ATOM      7  C   UNL     1      50.447  19.925  19.659  0.00  0.00    -0.135 A 
ATOM      8  C   UNL     1      50.121  18.816  18.843  0.00  0.00    +0.083 A 
ATOM      9  C   UNL     1      50.654  18.731  17.549  0.00  0.00    -0.084 A 
ATOM     10  C   UNL     1      51.488  19.727  17.088  0.00  0.00    +0.196 A 
ATOM     13  C   UNL     1      51.808  20.819  17.895  0.00  0.00    -0.183 A 
ATOM     14  C   UNL     1      51.303  20.927  19.160  0.00  0.00    +0.217 A 
ATOM     17  C   UNL     1      49.266  17.807  19.348  0.00  0.00    -0.112 A 
BRANCH   4   5
ATOM      5  O   UNL     1      50.216  21.068  21.753  0.00  0.00    -0.288 OA
ATOM      6  C   UNL     1      49.147  21.645  22.505  0.00  0.00    +0.245 C 
ENDBRANCH   4   5
BRANCH  10  11
ATOM     11  O   UNL     1      52.004  19.644  15.833  0.00  0.00    -0.313 OA
ATOM     12  C   UNL     1      52.130  18.337  15.270  0.00  0.00    +0.245 C 
ENDBRANCH  10  11
BRANCH  14  15
ATOM     15  O   UNL     1      51.623  21.997  19.933  0.00  0.00    -0.285 OA
ATOM     16  C   UNL     1      53.012  22.226  20.180  0.00  0.00    +0.246 C 
ENDBRANCH  14  15
ENDBRANCH  18  17
BRANCH  19  20
ATOM     20  O   UNL     1      46.937  17.739  17.755  0.00  0.00    -0.291 OA
ATOM     21  C   UNL     1      45.659  17.583  18.375  0.00  0.00    +0.251 C 
ENDBRANCH  19  20
BRANCH  23  24
ATOM     24  O   UNL     1      47.948  13.371  16.185  0.00  0.00    -0.307 OA
ATOM     25  C   UNL     1      46.706  12.722  16.463  0.00  0.00    +0.251 C 
ENDBRANCH  23  24
TORSDOF 6
ENDMDL
MODEL 6
REMARK VINA RESULT:      -4.5      2.467      6.509
REMARK  Name = ZINC95486018
REMARK  16 active torsions:
REMARK  status: ('A' for Active; 'I' for Inactive)
REMARK    1  A    between atoms: C1_1  and  C2_2
REMARK    2  A    between atoms: C4_4  and  O5_35
REMARK    3  A    between atoms: C7_7  and  C8_8
REMARK    4  A    between atoms: C9_9  and  O2_25
REMARK    5  A    between atoms: C11_11  and  O1_23
REMARK    6  A    between atoms: C15_15  and  C20_22
REMARK    7  A    between atoms: N1_17  and  C19_21
REMARK    8  A    between atoms: C16_18  and  C17_19
REMARK    9  A    between atoms: C16_18  and  C18_20
REMARK   10  A    between atoms: O1_23  and  C21_24
REMARK   11  A    between atoms: O2_25  and  C22_26
REMARK   12  A    between atoms: C24_28  and  O4_33
REMARK   13  A    between atoms: C26_30  and  O3_31
REMARK   14  A    between atoms: O3_31  and  C27_32
REMARK   15  A    between atoms: O4_33  and  C28_34
REMARK   16  A    between atoms: O5_35  and  C29_36
REMARK                            x       y       z     vdW  Elec       q    Type
REMARK                         _______ _______ _______ _____ _____    ______ ____
ROOT
ATOM     18  C   UNL     1      47.479  14.872  18.054  0.00  0.00    -0.077 A 
ATOM     19  C   UNL     1      46.198  14.527  18.498  0.00  0.00    +0.209 A 
ATOM     22  C   UNL     1      45.593  13.380  18.016  0.00  0.00    -0.147 A 
ATOM     23  C   UNL     1      46.258  12.580  17.101  0.00  0.00    +0.202 A 
ATOM     26  C   UNL     1      47.535  12.920  16.658  0.00  0.00    -0.195 A 
ATOM     27  C   UNL     1      48.216  12.012  15.667  0.00  0.00    +0.130 C 
ATOM     28  C   UNL     1      47.195  11.546  14.626  0.00  0.00    +0.102 C 
ATOM     29  C   UNL     1      48.778  10.793  16.401  0.00  0.00    +0.097 C 
ATOM     30  N   UNL     1      49.301  12.724  14.979  0.00  0.00    -0.378 N 
ATOM     31  H   UNL     1      48.921  13.469  14.414  0.00  0.00    +0.422 HD
ATOM     32  C   UNL     1      50.039  11.784  14.125  0.00  0.00    +0.319 C 
ATOM     33  C   UNL     1      50.210  13.288  15.989  0.00  0.00    +0.166 C 
ATOM     34  C   UNL     1      51.500  13.762  15.318  0.00  0.00    +0.092 C 
ATOM     35  C   UNL     1      49.515  14.473  16.661  0.00  0.00    +0.137 C 
ATOM     36  C   UNL     1      48.141  14.064  17.126  0.00  0.00    -0.001 A 
ENDROOT
BRANCH  18  17
ATOM      1  C   UNL     1      46.999  17.387  16.747  0.00  0.00    +0.093 C 
ATOM      2  C   UNL     1      47.910  17.316  17.945  0.00  0.00    +0.014 A 
ATOM      3  C   UNL     1      48.514  18.475  18.418  0.00  0.00    -0.122 A 
ATOM      4  C   UNL     1      49.352  18.440  19.511  0.00  0.00    +0.199 A 
ATOM      7  C   UNL     1      49.606  17.217  20.162  0.00  0.00    -0.135 A 
ATOM      8  C   UNL     1      48.995  16.034  19.686  0.00  0.00    +0.083 A 
ATOM      9  C   UNL     1      49.247  14.817  20.335  0.00  0.00    -0.084 A 
ATOM     10  C   UNL     1      50.086  14.787  21.428  0.00  0.00    +0.196 A 
ATOM     13  C   UNL     1      50.688  15.956  21.896  0.00  0.00    -0.183 A 
ATOM     14  C   UNL     1      50.460  17.155  21.282  0.00  0.00    +0.217 A 
ATOM     17  C   UNL     1      48.133  16.099  18.565  0.00  0.00    -0.112 A 
BRANCH   4   5
ATOM      5  O   UNL     1      49.934  19.583  19.957  0.00  0.00    -0.288 OA
ATOM      6  C   UNL     1      50.108  20.637  19.009  0.00  0.00    +0.245 C 
ENDBRANCH   4   5
BRANCH  10  11
ATOM     11  O   UNL     1      50.330  13.607  22.056  0.00  0.00    -0.313 OA
ATOM     12  C   UNL     1      51.357  12.781  21.506  0.00  0.00    +0.245 C 
ENDBRANCH  10  11
BRANCH  14  15
ATOM     15  O   UNL     1      51.054  18.283  21.750  0.00  0.00    -0.285 OA
ATOM     16  C   UNL     1      52.463  18.226  21.983  0.00  0.00    +0.246 C 
ENDBRANCH  14  15
ENDBRANCH  18  17
BRANCH  19  20
ATOM     20  O   UNL     1      45.552  15.315  19.396  0.00  0.00    -0.291 OA
ATOM     21  C   UNL     1      45.345  14.774  20.703  0.00  0.00    +0.251 C 
ENDBRANCH  19  20
BRANCH  23  24
ATOM     24  O   UNL     1      45.661  11.453  16.633  0.00  0.00    -0.307 OA
ATOM     25  C   UNL     1      44.246  11.502  16.440  0.00  0.00    +0.251 C 
ENDBRANCH  23  24
TORSDOF 6
ENDMDL
MODEL 7
REMARK VINA RESULT:      -4.4      2.077      7.246
REMARK  Name = ZINC95486018
REMARK  16 active torsions:
REMARK  status: ('A' for Active; 'I' for Inactive)
REMARK    1  A    between atoms: C1_1  and  C2_2
REMARK    2  A    between atoms: C4_4  and  O5_35
REMARK    3  A    between atoms: C7_7  and  C8_8
REMARK    4  A    between atoms: C9_9  and  O2_25
REMARK    5  A    between atoms: C11_11  and  O1_23
REMARK    6  A    between atoms: C15_15  and  C20_22
REMARK    7  A    between atoms: N1_17  and  C19_21
REMARK    8  A    between atoms: C16_18  and  C17_19
REMARK    9  A    between atoms: C16_18  and  C18_20
REMARK   10  A    between atoms: O1_23  and  C21_24
REMARK   11  A    between atoms: O2_25  and  C22_26
REMARK   12  A    between atoms: C24_28  and  O4_33
REMARK   13  A    between atoms: C26_30  and  O3_31
REMARK   14  A    between atoms: O3_31  and  C27_32
REMARK   15  A    between atoms: O4_33  and  C28_34
REMARK   16  A    between atoms: O5_35  and  C29_36
REMARK                            x       y       z     vdW  Elec       q    Type
REMARK                         _______ _______ _______ _____ _____    ______ ____
ROOT
ATOM     18  C   UNL     1      49.575  14.485  17.979  0.00  0.00    -0.077 A 
ATOM     19  C   UNL     1      48.687  14.307  16.914  0.00  0.00    +0.209 A 
ATOM     22  C   UNL     1      48.872  13.251  16.039  0.00  0.00    -0.147 A 
ATOM     23  C   UNL     1      49.932  12.378  16.224  0.00  0.00    +0.202 A 
ATOM     26  C   UNL     1      50.818  12.552  17.285  0.00  0.00    -0.195 A 
ATOM     27  C   UNL     1      51.950  11.571  17.443  0.00  0.00    +0.130 C 
ATOM     28  C   UNL     1      52.535  11.249  16.066  0.00  0.00    +0.102 C 
ATOM     29  C   UNL     1      51.419  10.284  18.077  0.00  0.00    +0.097 C 
ATOM     30  N   UNL     1      53.011  12.141  18.285  0.00  0.00    -0.378 N 
ATOM     31  H   UNL     1      53.431  12.933  17.820  0.00  0.00    +0.422 HD
ATOM     32  C   UNL     1      54.034  11.119  18.542  0.00  0.00    +0.319 C 
ATOM     33  C   UNL     1      52.418  12.576  19.560  0.00  0.00    +0.166 C 
ATOM     34  C   UNL     1      53.527  12.882  20.567  0.00  0.00    +0.092 C 
ATOM     35  C   UNL     1      51.590  13.835  19.307  0.00  0.00    +0.137 C 
ATOM     36  C   UNL     1      50.646  13.605  18.156  0.00  0.00    -0.001 A 
ENDROOT
BRANCH  18  17
ATOM      1  C   UNL     1      48.103  14.070  20.414  0.00  0.00    +0.093 C 
ATOM      2  C   UNL     1      48.678  15.426  20.096  0.00  0.00    +0.014 A 
ATOM      3  C   UNL     1      48.497  16.475  20.989  0.00  0.00    -0.122 A 
ATOM      4  C   UNL     1      49.010  17.727  20.725  0.00  0.00    +0.199 A 
ATOM      7  C   UNL     1      49.729  17.953  19.535  0.00  0.00    -0.135 A 
ATOM      8  C   UNL     1      49.917  16.890  18.621  0.00  0.00    +0.083 A 
ATOM      9  C   UNL     1      50.633  17.115  17.437  0.00  0.00    -0.084 A 
ATOM     10  C   UNL     1      51.145  18.368  17.178  0.00  0.00    +0.196 A 
ATOM     13  C   UNL     1      50.958  19.416  18.081  0.00  0.00    -0.183 A 
ATOM     14  C   UNL     1      50.265  19.223  19.241  0.00  0.00    +0.217 A 
ATOM     17  C   UNL     1      49.384  15.613  18.920  0.00  0.00    -0.112 A 
BRANCH   4   5
ATOM      5  O   UNL     1      48.821  18.739  21.610  0.00  0.00    -0.288 OA
ATOM      6  C   UNL     1      47.486  18.960  22.070  0.00  0.00    +0.245 C 
ENDBRANCH   4   5
BRANCH  10  11
ATOM     11  O   UNL     1      51.839  18.586  16.029  0.00  0.00    -0.313 OA
ATOM     12  C   UNL     1      52.212  19.935  15.744  0.00  0.00    +0.245 C 
ENDBRANCH  10  11
BRANCH  14  15
ATOM     15  O   UNL     1      50.091  20.254  20.110  0.00  0.00    -0.285 OA
ATOM     16  C   UNL     1      51.263  20.958  20.525  0.00  0.00    +0.246 C 
ENDBRANCH  14  15
ENDBRANCH  18  17
BRANCH  19  20
ATOM     20  O   UNL     1      47.648  15.165  16.739  0.00  0.00    -0.291 OA
ATOM     21  C   UNL     1      46.353  14.706  17.133  0.00  0.00    +0.251 C 
ENDBRANCH  19  20
BRANCH  23  24
ATOM     24  O   UNL     1      50.108  11.342  15.363  0.00  0.00    -0.307 OA
ATOM     25  C   UNL     1      48.957  10.555  15.051  0.00  0.00    +0.251 C 
ENDBRANCH  23  24
TORSDOF 6
ENDMDL
MODEL 8
REMARK VINA RESULT:      -4.4      2.593      8.118
REMARK  Name = ZINC95486018
REMARK  16 active torsions:
REMARK  status: ('A' for Active; 'I' for Inactive)
REMARK    1  A    between atoms: C1_1  and  C2_2
REMARK    2  A    between atoms: C4_4  and  O5_35
REMARK    3  A    between atoms: C7_7  and  C8_8
REMARK    4  A    between atoms: C9_9  and  O2_25
REMARK    5  A    between atoms: C11_11  and  O1_23
REMARK    6  A    between atoms: C15_15  and  C20_22
REMARK    7  A    between atoms: N1_17  and  C19_21
REMARK    8  A    between atoms: C16_18  and  C17_19
REMARK    9  A    between atoms: C16_18  and  C18_20
REMARK   10  A    between atoms: O1_23  and  C21_24
REMARK   11  A    between atoms: O2_25  and  C22_26
REMARK   12  A    between atoms: C24_28  and  O4_33
REMARK   13  A    between atoms: C26_30  and  O3_31
REMARK   14  A    between atoms: O3_31  and  C27_32
REMARK   15  A    between atoms: O4_33  and  C28_34
REMARK   16  A    between atoms: O5_35  and  C29_36
REMARK                            x       y       z     vdW  Elec       q    Type
REMARK                         _______ _______ _______ _____ _____    ______ ____
ROOT
ATOM     18  C   UNL     1      50.673  16.782  18.777  0.00  0.00    -0.077 A 
ATOM     19  C   UNL     1      51.315  16.918  17.542  0.00  0.00    +0.209 A 
ATOM     22  C   UNL     1      51.412  15.825  16.698  0.00  0.00    -0.147 A 
ATOM     23  C   UNL     1      50.873  14.607  17.080  0.00  0.00    +0.202 A 
ATOM     26  C   UNL     1      50.232  14.469  18.309  0.00  0.00    -0.195 A 
ATOM     27  C   UNL     1      49.658  13.124  18.672  0.00  0.00    +0.130 C 
ATOM     28  C   UNL     1      50.636  12.027  18.246  0.00  0.00    +0.102 C 
ATOM     29  C   UNL     1      48.330  12.926  17.940  0.00  0.00    +0.097 C 
ATOM     30  N   UNL     1      49.446  13.031  20.123  0.00  0.00    -0.378 N 
ATOM     31  H   UNL     1      50.333  13.061  20.604  0.00  0.00    +0.422 HD
ATOM     32  C   UNL     1      48.757  11.772  20.437  0.00  0.00    +0.319 C 
ATOM     33  C   UNL     1      48.615  14.167  20.552  0.00  0.00    +0.166 C 
ATOM     34  C   UNL     1      48.120  13.935  21.981  0.00  0.00    +0.092 C 
ATOM     35  C   UNL     1      49.464  15.437  20.501  0.00  0.00    +0.137 C 
ATOM     36  C   UNL     1      50.137  15.549  19.158  0.00  0.00    -0.001 A 
ENDROOT
BRANCH  18  17
ATOM      1  C   UNL     1      52.812  17.357  20.609  0.00  0.00    +0.093 C 
ATOM      2  C   UNL     1      51.588  18.235  20.572  0.00  0.00    +0.014 A 
ATOM      3  C   UNL     1      51.500  19.328  21.426  0.00  0.00    -0.122 A 
ATOM      4  C   UNL     1      50.393  20.148  21.415  0.00  0.00    +0.199 A 
ATOM      7  C   UNL     1      49.330  19.880  20.530  0.00  0.00    -0.135 A 
ATOM      8  C   UNL     1      49.413  18.769  19.658  0.00  0.00    +0.083 A 
ATOM      9  C   UNL     1      48.356  18.503  18.776  0.00  0.00    -0.084 A 
ATOM     10  C   UNL     1      47.250  19.326  18.768  0.00  0.00    +0.196 A 
ATOM     13  C   UNL     1      47.171  20.421  19.629  0.00  0.00    -0.183 A 
ATOM     14  C   UNL     1      48.187  20.703  20.498  0.00  0.00    +0.217 A 
ATOM     17  C   UNL     1      50.565  17.947  19.686  0.00  0.00    -0.112 A 
BRANCH   4   5
ATOM      5  O   UNL     1      50.326  21.210  22.258  0.00  0.00    -0.288 OA
ATOM      6  C   UNL     1      51.532  21.943  22.477  0.00  0.00    +0.245 C 
ENDBRANCH   4   5
BRANCH  10  11
ATOM     11  O   UNL     1      46.226  19.067  17.914  0.00  0.00    -0.313 OA
ATOM     12  C   UNL     1      44.902  19.279  18.406  0.00  0.00    +0.245 C 
ENDBRANCH  10  11
BRANCH  14  15
ATOM     15  O   UNL     1      48.094  21.773  21.331  0.00  0.00    -0.285 OA
ATOM     16  C   UNL     1      46.836  22.449  21.381  0.00  0.00    +0.246 C 
ENDBRANCH  14  15
ENDBRANCH  18  17
BRANCH  19  20
ATOM     20  O   UNL     1      51.840  18.115  17.173  0.00  0.00    -0.291 OA
ATOM     21  C   UNL     1      51.190  18.807  16.104  0.00  0.00    +0.251 C 
ENDBRANCH  19  20
BRANCH  23  24
ATOM     24  O   UNL     1      50.969  13.538  16.247  0.00  0.00    -0.307 OA
ATOM     25  C   UNL     1      51.650  13.741  15.007  0.00  0.00    +0.251 C 
ENDBRANCH  23  24
TORSDOF 6
ENDMDL
MODEL 9
REMARK VINA RESULT:      -4.4      2.536      7.067
REMARK  Name = ZINC95486018
REMARK  16 active torsions:
REMARK  status: ('A' for Active; 'I' for Inactive)
REMARK    1  A    between atoms: C1_1  and  C2_2
REMARK    2  A    between atoms: C4_4  and  O5_35
REMARK    3  A    between atoms: C7_7  and  C8_8
REMARK    4  A    between atoms: C9_9  and  O2_25
REMARK    5  A    between atoms: C11_11  and  O1_23
REMARK    6  A    between atoms: C15_15  and  C20_22
REMARK    7  A    between atoms: N1_17  and  C19_21
REMARK    8  A    between atoms: C16_18  and  C17_19
REMARK    9  A    between atoms: C16_18  and  C18_20
REMARK   10  A    between atoms: O1_23  and  C21_24
REMARK   11  A    between atoms: O2_25  and  C22_26
REMARK   12  A    between atoms: C24_28  and  O4_33
REMARK   13  A    between atoms: C26_30  and  O3_31
REMARK   14  A    between atoms: O3_31  and  C27_32
REMARK   15  A    between atoms: O4_33  and  C28_34
REMARK   16  A    between atoms: O5_35  and  C29_36
REMARK                            x       y       z     vdW  Elec       q    Type
REMARK                         _______ _______ _______ _____ _____    ______ ____
ROOT
ATOM     18  C   UNL     1      49.647  13.712  18.110  0.00  0.00    -0.077 A 
ATOM     19  C   UNL     1      48.506  13.225  18.756  0.00  0.00    +0.209 A 
ATOM     22  C   UNL     1      47.580  12.484  18.043  0.00  0.00    -0.147 A 
ATOM     23  C   UNL     1      47.788  12.228  16.697  0.00  0.00    +0.202 A 
ATOM     26  C   UNL     1      48.923  12.711  16.051  0.00  0.00    -0.195 A 
ATOM     27  C   UNL     1      49.103  12.400  14.588  0.00  0.00    +0.130 C 
ATOM     28  C   UNL     1      47.757  12.539  13.873  0.00  0.00    +0.102 C 
ATOM     29  C   UNL     1      49.608  10.964  14.435  0.00  0.00    +0.097 C 
ATOM     30  N   UNL     1      50.061  13.332  13.977  0.00  0.00    -0.378 N 
ATOM     31  H   UNL     1      49.684  14.269  13.988  0.00  0.00    +0.422 HD
ATOM     32  C   UNL     1      50.328  12.923  12.593  0.00  0.00    +0.319 C 
ATOM     33  C   UNL     1      51.312  13.296  14.751  0.00  0.00    +0.166 C 
ATOM     34  C   UNL     1      52.421  14.008  13.974  0.00  0.00    +0.092 C 
ATOM     35  C   UNL     1      51.080  14.007  16.084  0.00  0.00    +0.137 C 
ATOM     36  C   UNL     1      49.846  13.456  16.750  0.00  0.00    -0.001 A 
ENDROOT
BRANCH  18  17
ATOM      1  C   UNL     1      51.939  12.401  19.247  0.00  0.00    +0.093 C 
ATOM      2  C   UNL     1      51.751  13.886  19.418  0.00  0.00    +0.014 A 
ATOM      3  C   UNL     1      52.696  14.621  20.125  0.00  0.00    -0.122 A 
ATOM      4  C   UNL     1      52.550  15.981  20.298  0.00  0.00    +0.199 A 
ATOM      7  C   UNL     1      51.431  16.641  19.754  0.00  0.00    -0.135 A 
ATOM      8  C   UNL     1      50.466  15.900  19.034  0.00  0.00    +0.083 A 
ATOM      9  C   UNL     1      49.353  16.557  18.492  0.00  0.00    -0.084 A 
ATOM     10  C   UNL     1      49.212  17.917  18.667  0.00  0.00    +0.196 A 
ATOM     13  C   UNL     1      50.165  18.647  19.378  0.00  0.00    -0.183 A 
ATOM     14  C   UNL     1      51.259  18.031  19.916  0.00  0.00    +0.217 A 
ATOM     17  C   UNL     1      50.643  14.505  18.866  0.00  0.00    -0.112 A 
BRANCH   4   5
ATOM      5  O   UNL     1      53.483  16.681  20.992  0.00  0.00    -0.288 OA
ATOM      6  C   UNL     1      54.616  15.954  21.473  0.00  0.00    +0.245 C 
ENDBRANCH   4   5
BRANCH  10  11
ATOM     11  O   UNL     1      48.132  18.554  18.142  0.00  0.00    -0.313 OA
ATOM     12  C   UNL     1      47.046  17.735  17.706  0.00  0.00    +0.245 C 
ENDBRANCH  10  11
BRANCH  14  15
ATOM     15  O   UNL     1      52.178  18.755  20.607  0.00  0.00    -0.285 OA
ATOM     16  C   UNL     1      52.190  20.167  20.386  0.00  0.00    +0.246 C 
ENDBRANCH  14  15
ENDBRANCH  18  17
BRANCH  19  20
ATOM     20  O   UNL     1      48.309  13.477  20.076  0.00  0.00    -0.291 OA
ATOM     21  C   UNL     1      47.131  14.206  20.429  0.00  0.00    +0.251 C 
ENDBRANCH  19  20
BRANCH  23  24
ATOM     24  O   UNL     1      46.876  11.499  16.003  0.00  0.00    -0.307 OA
ATOM     25  C   UNL     1      45.545  11.463  16.519  0.00  0.00    +0.251 C 
ENDBRANCH  23  24
TORSDOF 6
ENDMDL
