MODEL 1
REMARK VINA RESULT:      -6.5      0.000      0.000
REMARK  Name = ZINC18185774
REMARK  5 active torsions:
REMARK  status: ('A' for Active; 'I' for Inactive)
REMARK    1  A    between atoms: C3_3  and  O6_21
REMARK    2  A    between atoms: C4_4  and  O5_20
REMARK    3  A    between atoms: C6_6  and  C7_7
REMARK    4  A    between atoms: C11_12  and  O4_19
REMARK    5  A    between atoms: C13_14  and  O3_18
REMARK                            x       y       z     vdW  Elec       q    Type
REMARK                         _______ _______ _______ _____ _____    ______ ____
ROOT
ATOM     11  C   UNL     1      43.875  18.629  20.416  0.00  0.00    +0.207 A 
ATOM     12  C   UNL     1      44.720  19.678  20.604  0.00  0.00    -0.142 A 
ATOM     13  C   UNL     1      44.322  20.975  20.200  0.00  0.00    +0.423 A 
ATOM     14  C   UNL     1      42.991  21.116  19.586  0.00  0.00    -0.266 A 
ATOM     15  C   UNL     1      42.516  22.360  19.156  0.00  0.00    +0.220 A 
ATOM     18  C   UNL     1      41.259  22.449  18.585  0.00  0.00    -0.054 A 
ATOM     19  C   UNL     1      40.476  21.311  18.440  0.00  0.00    +0.193 A 
ATOM     22  C   UNL     1      40.939  20.074  18.864  0.00  0.00    -0.029 A 
ATOM     23  C   UNL     1      42.196  19.966  19.439  0.00  0.00    +0.183 A 
ATOM     24  O   UNL     1      45.055  21.939  20.352  0.00  0.00    -0.452 OA
ATOM     25  O   UNL     1      42.666  18.769  19.851  0.00  0.00    -0.218 OA
ENDROOT
BRANCH  11  10
ATOM      1  C   UNL     1      43.956  16.806  22.108  0.00  0.00    +0.075 A 
ATOM      2  C   UNL     1      44.361  15.549  22.505  0.00  0.00    +0.016 A 
ATOM      3  C   UNL     1      45.119  14.759  21.653  0.00  0.00    +0.110 A 
ATOM      6  C   UNL     1      45.473  15.231  20.390  0.00  0.00    +0.079 A 
ATOM      9  C   UNL     1      45.071  16.489  19.986  0.00  0.00    +0.056 A 
ATOM     10  C   UNL     1      44.308  17.286  20.844  0.00  0.00    -0.066 A 
BRANCH   3   4
ATOM      4  O   UNL     1      45.516  13.521  22.050  0.00  0.00    -0.485 OA
ATOM      5  H   UNL     1      46.289  13.186  21.576  0.00  0.00    +0.395 HD
ENDBRANCH   3   4
BRANCH   6   7
ATOM      7  O   UNL     1      46.216  14.454  19.558  0.00  0.00    -0.483 OA
ATOM      8  H   UNL     1      45.721  14.099  18.806  0.00  0.00    +0.392 HD
ENDBRANCH   6   7
ENDBRANCH  11  10
BRANCH  15  16
ATOM     16  O   UNL     1      43.281  23.471  19.299  0.00  0.00    -0.472 OA
ATOM     17  H   UNL     1      43.048  24.013  20.066  0.00  0.00    +0.403 HD
ENDBRANCH  15  16
BRANCH  19  20
ATOM     20  O   UNL     1      39.244  21.409  17.879  0.00  0.00    -0.487 OA
ATOM     21  H   UNL     1      39.229  21.236  16.928  0.00  0.00    +0.404 HD
ENDBRANCH  19  20
TORSDOF 5
ENDMDL
MODEL 2
REMARK VINA RESULT:      -6.2      5.153      8.288
REMARK  Name = ZINC18185774
REMARK  5 active torsions:
REMARK  status: ('A' for Active; 'I' for Inactive)
REMARK    1  A    between atoms: C3_3  and  O6_21
REMARK    2  A    between atoms: C4_4  and  O5_20
REMARK    3  A    between atoms: C6_6  and  C7_7
REMARK    4  A    between atoms: C11_12  and  O4_19
REMARK    5  A    between atoms: C13_14  and  O3_18
REMARK                            x       y       z     vdW  Elec       q    Type
REMARK                         _______ _______ _______ _____ _____    ______ ____
ROOT
ATOM     11  C   UNL     1      48.212  20.463  19.711  0.00  0.00    +0.207 A 
ATOM     12  C   UNL     1      48.354  19.137  19.977  0.00  0.00    -0.142 A 
ATOM     13  C   UNL     1      49.397  18.409  19.355  0.00  0.00    +0.423 A 
ATOM     14  C   UNL     1      50.284  19.144  18.438  0.00  0.00    -0.266 A 
ATOM     15  C   UNL     1      51.340  18.505  17.778  0.00  0.00    +0.220 A 
ATOM     18  C   UNL     1      52.150  19.231  16.925  0.00  0.00    -0.054 A 
ATOM     19  C   UNL     1      51.915  20.586  16.724  0.00  0.00    +0.193 A 
ATOM     22  C   UNL     1      50.871  21.227  17.374  0.00  0.00    -0.029 A 
ATOM     23  C   UNL     1      50.049  20.515  18.233  0.00  0.00    +0.183 A 
ATOM     24  O   UNL     1      49.554  17.218  19.570  0.00  0.00    -0.452 OA
ATOM     25  O   UNL     1      49.024  21.121  18.869  0.00  0.00    -0.218 OA
ENDROOT
BRANCH  11  10
ATOM      1  C   UNL     1      47.388  22.011  21.478  0.00  0.00    +0.075 A 
ATOM      2  C   UNL     1      46.365  22.703  22.090  0.00  0.00    +0.016 A 
ATOM      3  C   UNL     1      45.068  22.601  21.609  0.00  0.00    +0.110 A 
ATOM      6  C   UNL     1      44.793  21.799  20.502  0.00  0.00    +0.079 A 
ATOM      9  C   UNL     1      45.812  21.102  19.884  0.00  0.00    +0.056 A 
ATOM     10  C   UNL     1      47.120  21.204  20.369  0.00  0.00    -0.066 A 
BRANCH   3   4
ATOM      4  O   UNL     1      44.063  23.285  22.216  0.00  0.00    -0.485 OA
ATOM      5  H   UNL     1      43.240  22.785  22.298  0.00  0.00    +0.395 HD
ENDBRANCH   3   4
BRANCH   6   7
ATOM      7  O   UNL     1      43.520  21.701  20.033  0.00  0.00    -0.483 OA
ATOM      8  H   UNL     1      42.874  22.212  20.540  0.00  0.00    +0.392 HD
ENDBRANCH   6   7
ENDBRANCH  11  10
BRANCH  15  16
ATOM     16  O   UNL     1      51.569  17.182  17.976  0.00  0.00    -0.472 OA
ATOM     17  H   UNL     1      51.905  16.968  18.858  0.00  0.00    +0.403 HD
ENDBRANCH  15  16
BRANCH  19  20
ATOM     20  O   UNL     1      52.717  21.290  15.885  0.00  0.00    -0.487 OA
ATOM     21  H   UNL     1      52.781  22.231  16.099  0.00  0.00    +0.404 HD
ENDBRANCH  19  20
TORSDOF 5
ENDMDL
MODEL 3
REMARK VINA RESULT:      -6.0      2.917      4.342
REMARK  Name = ZINC18185774
REMARK  5 active torsions:
REMARK  status: ('A' for Active; 'I' for Inactive)
REMARK    1  A    between atoms: C3_3  and  O6_21
REMARK    2  A    between atoms: C4_4  and  O5_20
REMARK    3  A    between atoms: C6_6  and  C7_7
REMARK    4  A    between atoms: C11_12  and  O4_19
REMARK    5  A    between atoms: C13_14  and  O3_18
REMARK                            x       y       z     vdW  Elec       q    Type
REMARK                         _______ _______ _______ _____ _____    ______ ____
ROOT
ATOM     11  C   UNL     1      45.263  19.432  19.648  0.00  0.00    +0.207 A 
ATOM     12  C   UNL     1      44.848  18.511  20.560  0.00  0.00    -0.142 A 
ATOM     13  C   UNL     1      43.476  18.435  20.899  0.00  0.00    +0.423 A 
ATOM     14  C   UNL     1      42.560  19.377  20.235  0.00  0.00    -0.266 A 
ATOM     15  C   UNL     1      41.187  19.373  20.511  0.00  0.00    +0.220 A 
ATOM     18  C   UNL     1      40.360  20.274  19.865  0.00  0.00    -0.054 A 
ATOM     19  C   UNL     1      40.890  21.176  18.949  0.00  0.00    +0.193 A 
ATOM     22  C   UNL     1      42.248  21.185  18.671  0.00  0.00    -0.029 A 
ATOM     23  C   UNL     1      43.092  20.290  19.308  0.00  0.00    +0.183 A 
ATOM     24  O   UNL     1      43.069  17.621  21.713  0.00  0.00    -0.452 OA
ATOM     25  O   UNL     1      44.418  20.289  19.053  0.00  0.00    -0.218 OA
ENDROOT
BRANCH  11  10
ATOM      1  C   UNL     1      47.409  20.683  19.496  0.00  0.00    +0.075 A 
ATOM      2  C   UNL     1      48.749  20.740  19.177  0.00  0.00    +0.016 A 
ATOM      3  C   UNL     1      49.393  19.621  18.669  0.00  0.00    +0.110 A 
ATOM      6  C   UNL     1      48.688  18.433  18.479  0.00  0.00    +0.079 A 
ATOM      9  C   UNL     1      47.345  18.369  18.796  0.00  0.00    +0.056 A 
ATOM     10  C   UNL     1      46.696  19.496  19.308  0.00  0.00    -0.066 A 
BRANCH   3   4
ATOM      4  O   UNL     1      50.714  19.682  18.356  0.00  0.00    -0.485 OA
ATOM      5  H   UNL     1      51.086  20.574  18.394  0.00  0.00    +0.395 HD
ENDBRANCH   3   4
BRANCH   6   7
ATOM      7  O   UNL     1      49.323  17.339  17.981  0.00  0.00    -0.483 OA
ATOM      8  H   UNL     1      50.286  17.374  18.058  0.00  0.00    +0.392 HD
ENDBRANCH   6   7
ENDBRANCH  11  10
BRANCH  15  16
ATOM     16  O   UNL     1      40.671  18.492  21.404  0.00  0.00    -0.472 OA
ATOM     17  H   UNL     1      41.066  17.610  21.359  0.00  0.00    +0.403 HD
ENDBRANCH  15  16
BRANCH  19  20
ATOM     20  O   UNL     1      40.069  22.055  18.321  0.00  0.00    -0.487 OA
ATOM     21  H   UNL     1      39.131  21.929  18.518  0.00  0.00    +0.404 HD
ENDBRANCH  19  20
TORSDOF 5
ENDMDL
MODEL 4
REMARK VINA RESULT:      -6.0      4.684      8.113
REMARK  Name = ZINC18185774
REMARK  5 active torsions:
REMARK  status: ('A' for Active; 'I' for Inactive)
REMARK    1  A    between atoms: C3_3  and  O6_21
REMARK    2  A    between atoms: C4_4  and  O5_20
REMARK    3  A    between atoms: C6_6  and  C7_7
REMARK    4  A    between atoms: C11_12  and  O4_19
REMARK    5  A    between atoms: C13_14  and  O3_18
REMARK                            x       y       z     vdW  Elec       q    Type
REMARK                         _______ _______ _______ _____ _____    ______ ____
ROOT
ATOM     11  C   UNL     1      47.341  19.837  18.829  0.00  0.00    +0.207 A 
ATOM     12  C   UNL     1      47.471  18.531  18.470  0.00  0.00    -0.142 A 
ATOM     13  C   UNL     1      48.762  17.990  18.263  0.00  0.00    +0.423 A 
ATOM     14  C   UNL     1      49.912  18.890  18.449  0.00  0.00    -0.266 A 
ATOM     15  C   UNL     1      51.225  18.441  18.264  0.00  0.00    +0.220 A 
ATOM     18  C   UNL     1      52.278  19.318  18.450  0.00  0.00    -0.054 A 
ATOM     19  C   UNL     1      52.033  20.636  18.817  0.00  0.00    +0.193 A 
ATOM     22  C   UNL     1      50.735  21.088  19.002  0.00  0.00    -0.029 A 
ATOM     23  C   UNL     1      49.667  20.223  18.821  0.00  0.00    +0.183 A 
ATOM     24  O   UNL     1      48.916  16.823  17.940  0.00  0.00    -0.452 OA
ATOM     25  O   UNL     1      48.397  20.649  18.991  0.00  0.00    -0.218 OA
ENDROOT
BRANCH  11  10
ATOM      1  C   UNL     1      44.867  19.655  18.631  0.00  0.00    +0.075 A 
ATOM      2  C   UNL     1      43.602  20.167  18.830  0.00  0.00    +0.016 A 
ATOM      3  C   UNL     1      43.439  21.404  19.437  0.00  0.00    +0.110 A 
ATOM      6  C   UNL     1      44.552  22.135  19.850  0.00  0.00    +0.079 A 
ATOM      9  C   UNL     1      45.822  21.629  19.652  0.00  0.00    +0.056 A 
ATOM     10  C   UNL     1      45.987  20.383  19.041  0.00  0.00    -0.066 A 
BRANCH   3   4
ATOM      4  O   UNL     1      42.190  21.904  19.631  0.00  0.00    -0.485 OA
ATOM      5  H   UNL     1      41.872  21.825  20.541  0.00  0.00    +0.395 HD
ENDBRANCH   3   4
BRANCH   6   7
ATOM      7  O   UNL     1      44.387  23.347  20.444  0.00  0.00    -0.483 OA
ATOM      8  H   UNL     1      43.536  23.765  20.254  0.00  0.00    +0.392 HD
ENDBRANCH   6   7
ENDBRANCH  11  10
BRANCH  15  16
ATOM     16  O   UNL     1      51.463  17.153  17.907  0.00  0.00    -0.472 OA
ATOM     17  H   UNL     1      52.364  16.993  17.592  0.00  0.00    +0.403 HD
ENDBRANCH  15  16
BRANCH  19  20
ATOM     20  O   UNL     1      53.073  21.488  18.997  0.00  0.00    -0.487 OA
ATOM     21  H   UNL     1      53.820  21.329  18.403  0.00  0.00    +0.404 HD
ENDBRANCH  19  20
TORSDOF 5
ENDMDL
MODEL 5
REMARK VINA RESULT:      -5.9      4.670      8.015
REMARK  Name = ZINC18185774
REMARK  5 active torsions:
REMARK  status: ('A' for Active; 'I' for Inactive)
REMARK    1  A    between atoms: C3_3  and  O6_21
REMARK    2  A    between atoms: C4_4  and  O5_20
REMARK    3  A    between atoms: C6_6  and  C7_7
REMARK    4  A    between atoms: C11_12  and  O4_19
REMARK    5  A    between atoms: C13_14  and  O3_18
REMARK                            x       y       z     vdW  Elec       q    Type
REMARK                         _______ _______ _______ _____ _____    ______ ____
ROOT
ATOM     11  C   UNL     1      48.214  20.292  19.160  0.00  0.00    +0.207 A 
ATOM     12  C   UNL     1      49.413  20.904  18.967  0.00  0.00    -0.142 A 
ATOM     13  C   UNL     1      50.476  20.182  18.372  0.00  0.00    +0.423 A 
ATOM     14  C   UNL     1      50.216  18.784  17.991  0.00  0.00    -0.266 A 
ATOM     15  C   UNL     1      51.209  17.995  17.398  0.00  0.00    +0.220 A 
ATOM     18  C   UNL     1      50.924  16.685  17.055  0.00  0.00    -0.054 A 
ATOM     19  C   UNL     1      49.662  16.159  17.298  0.00  0.00    +0.193 A 
ATOM     22  C   UNL     1      48.673  16.934  17.885  0.00  0.00    -0.029 A 
ATOM     23  C   UNL     1      48.940  18.248  18.236  0.00  0.00    +0.183 A 
ATOM     24  O   UNL     1      51.565  20.699  18.184  0.00  0.00    -0.452 OA
ATOM     25  O   UNL     1      47.991  19.015  18.814  0.00  0.00    -0.218 OA
ENDROOT
BRANCH  11  10
ATOM      1  C   UNL     1      47.309  21.672  21.024  0.00  0.00    +0.075 A 
ATOM      2  C   UNL     1      46.283  22.390  21.602  0.00  0.00    +0.016 A 
ATOM      3  C   UNL     1      45.063  22.509  20.954  0.00  0.00    +0.110 A 
ATOM      6  C   UNL     1      44.866  21.903  19.713  0.00  0.00    +0.079 A 
ATOM      9  C   UNL     1      45.888  21.181  19.128  0.00  0.00    +0.056 A 
ATOM     10  C   UNL     1      47.119  21.061  19.781  0.00  0.00    -0.066 A 
BRANCH   3   4
ATOM      4  O   UNL     1      44.056  23.218  21.528  0.00  0.00    -0.485 OA
ATOM      5  H   UNL     1      43.583  22.738  22.222  0.00  0.00    +0.395 HD
ENDBRANCH   3   4
BRANCH   6   7
ATOM      7  O   UNL     1      43.669  22.021  19.081  0.00  0.00    -0.483 OA
ATOM      8  H   UNL     1      43.540  22.872  18.640  0.00  0.00    +0.392 HD
ENDBRANCH   6   7
ENDBRANCH  11  10
BRANCH  15  16
ATOM     16  O   UNL     1      52.441  18.511  17.160  0.00  0.00    -0.472 OA
ATOM     17  H   UNL     1      53.010  17.940  16.625  0.00  0.00    +0.403 HD
ENDBRANCH  15  16
BRANCH  19  20
ATOM     20  O   UNL     1      49.392  14.873  16.957  0.00  0.00    -0.487 OA
ATOM     21  H   UNL     1      50.051  14.236  17.269  0.00  0.00    +0.404 HD
ENDBRANCH  19  20
TORSDOF 5
ENDMDL
MODEL 6
REMARK VINA RESULT:      -5.8      4.034      8.138
REMARK  Name = ZINC18185774
REMARK  5 active torsions:
REMARK  status: ('A' for Active; 'I' for Inactive)
REMARK    1  A    between atoms: C3_3  and  O6_21
REMARK    2  A    between atoms: C4_4  and  O5_20
REMARK    3  A    between atoms: C6_6  and  C7_7
REMARK    4  A    between atoms: C11_12  and  O4_19
REMARK    5  A    between atoms: C13_14  and  O3_18
REMARK                            x       y       z     vdW  Elec       q    Type
REMARK                         _______ _______ _______ _____ _____    ______ ____
ROOT
ATOM     11  C   UNL     1      47.177  19.793  18.994  0.00  0.00    +0.207 A 
ATOM     12  C   UNL     1      46.343  18.871  18.444  0.00  0.00    -0.142 A 
ATOM     13  C   UNL     1      46.887  17.724  17.817  0.00  0.00    +0.423 A 
ATOM     14  C   UNL     1      48.354  17.596  17.795  0.00  0.00    -0.266 A 
ATOM     15  C   UNL     1      48.980  16.496  17.196  0.00  0.00    +0.220 A 
ATOM     18  C   UNL     1      50.360  16.413  17.196  0.00  0.00    -0.054 A 
ATOM     19  C   UNL     1      51.119  17.415  17.789  0.00  0.00    +0.193 A 
ATOM     22  C   UNL     1      50.507  18.508  18.385  0.00  0.00    -0.029 A 
ATOM     23  C   UNL     1      49.125  18.608  18.393  0.00  0.00    +0.183 A 
ATOM     24  O   UNL     1      46.169  16.876  17.312  0.00  0.00    -0.452 OA
ATOM     25  O   UNL     1      48.513  19.668  18.963  0.00  0.00    -0.218 OA
ENDROOT
BRANCH  11  10
ATOM      1  C   UNL     1      47.162  21.497  20.809  0.00  0.00    +0.075 A 
ATOM      2  C   UNL     1      46.612  22.607  21.413  0.00  0.00    +0.016 A 
ATOM      3  C   UNL     1      45.491  23.214  20.867  0.00  0.00    +0.110 A 
ATOM      6  C   UNL     1      44.915  22.706  19.703  0.00  0.00    +0.079 A 
ATOM      9  C   UNL     1      45.460  21.593  19.093  0.00  0.00    +0.056 A 
ATOM     10  C   UNL     1      46.590  20.981  19.643  0.00  0.00    -0.066 A 
BRANCH   3   4
ATOM      4  O   UNL     1      44.952  24.309  21.467  0.00  0.00    -0.485 OA
ATOM      5  H   UNL     1      44.461  24.885  20.865  0.00  0.00    +0.395 HD
ENDBRANCH   3   4
BRANCH   6   7
ATOM      7  O   UNL     1      43.816  23.304  19.171  0.00  0.00    -0.483 OA
ATOM      8  H   UNL     1      43.768  24.255  19.335  0.00  0.00    +0.392 HD
ENDBRANCH   6   7
ENDBRANCH  11  10
BRANCH  15  16
ATOM     16  O   UNL     1      48.237  15.518  16.619  0.00  0.00    -0.472 OA
ATOM     17  H   UNL     1      48.176  15.587  15.655  0.00  0.00    +0.403 HD
ENDBRANCH  15  16
BRANCH  19  20
ATOM     20  O   UNL     1      52.474  17.324  17.785  0.00  0.00    -0.487 OA
ATOM     21  H   UNL     1      52.823  16.673  17.160  0.00  0.00    +0.404 HD
ENDBRANCH  19  20
TORSDOF 5
ENDMDL
MODEL 7
REMARK VINA RESULT:      -5.7      2.368      6.881
REMARK  Name = ZINC18185774
REMARK  5 active torsions:
REMARK  status: ('A' for Active; 'I' for Inactive)
REMARK    1  A    between atoms: C3_3  and  O6_21
REMARK    2  A    between atoms: C4_4  and  O5_20
REMARK    3  A    between atoms: C6_6  and  C7_7
REMARK    4  A    between atoms: C11_12  and  O4_19
REMARK    5  A    between atoms: C13_14  and  O3_18
REMARK                            x       y       z     vdW  Elec       q    Type
REMARK                         _______ _______ _______ _____ _____    ______ ____
ROOT
ATOM     11  C   UNL     1      43.918  19.394  19.787  0.00  0.00    +0.207 A 
ATOM     12  C   UNL     1      43.889  18.176  20.392  0.00  0.00    -0.142 A 
ATOM     13  C   UNL     1      45.106  17.513  20.682  0.00  0.00    +0.423 A 
ATOM     14  C   UNL     1      46.356  18.193  20.302  0.00  0.00    -0.266 A 
ATOM     15  C   UNL     1      47.605  17.610  20.548  0.00  0.00    +0.220 A 
ATOM     18  C   UNL     1      48.755  18.282  20.176  0.00  0.00    -0.054 A 
ATOM     19  C   UNL     1      48.670  19.525  19.562  0.00  0.00    +0.193 A 
ATOM     22  C   UNL     1      47.436  20.109  19.314  0.00  0.00    -0.029 A 
ATOM     23  C   UNL     1      46.273  19.451  19.680  0.00  0.00    +0.183 A 
ATOM     24  O   UNL     1      45.118  16.420  21.223  0.00  0.00    -0.452 OA
ATOM     25  O   UNL     1      45.063  20.001  19.441  0.00  0.00    -0.218 OA
ENDROOT
BRANCH  11  10
ATOM      1  C   UNL     1      41.429  19.437  19.788  0.00  0.00    +0.075 A 
ATOM      2  C   UNL     1      40.236  20.070  19.514  0.00  0.00    +0.016 A 
ATOM      3  C   UNL     1      40.233  21.335  18.945  0.00  0.00    +0.110 A 
ATOM      6  C   UNL     1      41.437  21.974  18.650  0.00  0.00    +0.079 A 
ATOM      9  C   UNL     1      42.636  21.345  18.921  0.00  0.00    +0.056 A 
ATOM     10  C   UNL     1      42.639  20.070  19.494  0.00  0.00    -0.066 A 
BRANCH   3   4
ATOM      4  O   UNL     1      39.054  21.955  18.677  0.00  0.00    -0.485 OA
ATOM      5  H   UNL     1      38.959  22.238  17.757  0.00  0.00    +0.395 HD
ENDBRANCH   3   4
BRANCH   6   7
ATOM      7  O   UNL     1      41.430  23.214  18.093  0.00  0.00    -0.483 OA
ATOM      8  H   UNL     1      40.685  23.765  18.369  0.00  0.00    +0.392 HD
ENDBRANCH   6   7
ENDBRANCH  11  10
BRANCH  15  16
ATOM     16  O   UNL     1      47.686  16.397  21.150  0.00  0.00    -0.472 OA
ATOM     17  H   UNL     1      47.729  16.438  22.116  0.00  0.00    +0.403 HD
ENDBRANCH  15  16
BRANCH  19  20
ATOM     20  O   UNL     1      49.805  20.176  19.201  0.00  0.00    -0.487 OA
ATOM     21  H   UNL     1      50.387  19.663  18.623  0.00  0.00    +0.404 HD
ENDBRANCH  19  20
TORSDOF 5
ENDMDL
MODEL 8
REMARK VINA RESULT:      -5.7      4.151      7.197
REMARK  Name = ZINC18185774
REMARK  5 active torsions:
REMARK  status: ('A' for Active; 'I' for Inactive)
REMARK    1  A    between atoms: C3_3  and  O6_21
REMARK    2  A    between atoms: C4_4  and  O5_20
REMARK    3  A    between atoms: C6_6  and  C7_7
REMARK    4  A    between atoms: C11_12  and  O4_19
REMARK    5  A    between atoms: C13_14  and  O3_18
REMARK                            x       y       z     vdW  Elec       q    Type
REMARK                         _______ _______ _______ _____ _____    ______ ____
ROOT
ATOM     11  C   UNL     1      46.507  18.859  18.883  0.00  0.00    +0.207 A 
ATOM     12  C   UNL     1      46.803  17.685  18.262  0.00  0.00    -0.142 A 
ATOM     13  C   UNL     1      48.124  17.447  17.814  0.00  0.00    +0.423 A 
ATOM     14  C   UNL     1      49.121  18.505  18.050  0.00  0.00    -0.266 A 
ATOM     15  C   UNL     1      50.451  18.356  17.639  0.00  0.00    +0.220 A 
ATOM     18  C   UNL     1      51.357  19.373  17.880  0.00  0.00    -0.054 A 
ATOM     19  C   UNL     1      50.947  20.535  18.524  0.00  0.00    +0.193 A 
ATOM     22  C   UNL     1      49.631  20.690  18.933  0.00  0.00    -0.029 A 
ATOM     23  C   UNL     1      48.710  19.681  18.701  0.00  0.00    +0.183 A 
ATOM     24  O   UNL     1      48.426  16.406  17.253  0.00  0.00    -0.452 OA
ATOM     25  O   UNL     1      47.423  19.818  19.087  0.00  0.00    -0.218 OA
ENDROOT
BRANCH  11  10
ATOM      1  C   UNL     1      44.587  18.303  20.366  0.00  0.00    +0.075 A 
ATOM      2  C   UNL     1      43.294  18.520  20.794  0.00  0.00    +0.016 A 
ATOM      3  C   UNL     1      42.525  19.516  20.211  0.00  0.00    +0.110 A 
ATOM      6  C   UNL     1      43.055  20.304  19.190  0.00  0.00    +0.079 A 
ATOM      9  C   UNL     1      44.349  20.092  18.756  0.00  0.00    +0.056 A 
ATOM     10  C   UNL     1      45.124  19.088  19.343  0.00  0.00    -0.066 A 
BRANCH   3   4
ATOM      4  O   UNL     1      41.251  19.725  20.637  0.00  0.00    -0.485 OA
ATOM      5  H   UNL     1      40.935  20.629  20.502  0.00  0.00    +0.395 HD
ENDBRANCH   3   4
BRANCH   6   7
ATOM      7  O   UNL     1      42.297  21.279  18.621  0.00  0.00    -0.483 OA
ATOM      8  H   UNL     1      41.916  21.901  19.256  0.00  0.00    +0.392 HD
ENDBRANCH   6   7
ENDBRANCH  11  10
BRANCH  15  16
ATOM     16  O   UNL     1      50.850  17.221  17.012  0.00  0.00    -0.472 OA
ATOM     17  H   UNL     1      51.250  16.565  17.601  0.00  0.00    +0.403 HD
ENDBRANCH  15  16
BRANCH  19  20
ATOM     20  O   UNL     1      51.844  21.527  18.756  0.00  0.00    -0.487 OA
ATOM     21  H   UNL     1      52.708  21.380  18.347  0.00  0.00    +0.404 HD
ENDBRANCH  19  20
TORSDOF 5
ENDMDL
MODEL 9
REMARK VINA RESULT:      -5.6      5.441      8.301
REMARK  Name = ZINC18185774
REMARK  5 active torsions:
REMARK  status: ('A' for Active; 'I' for Inactive)
REMARK    1  A    between atoms: C3_3  and  O6_21
REMARK    2  A    between atoms: C4_4  and  O5_20
REMARK    3  A    between atoms: C6_6  and  C7_7
REMARK    4  A    between atoms: C11_12  and  O4_19
REMARK    5  A    between atoms: C13_14  and  O3_18
REMARK                            x       y       z     vdW  Elec       q    Type
REMARK                         _______ _______ _______ _____ _____    ______ ____
ROOT
ATOM     11  C   UNL     1      48.518  17.129  18.053  0.00  0.00    +0.207 A 
ATOM     12  C   UNL     1      47.682  17.221  19.122  0.00  0.00    -0.142 A 
ATOM     13  C   UNL     1      46.720  16.206  19.344  0.00  0.00    +0.423 A 
ATOM     14  C   UNL     1      46.677  15.091  18.384  0.00  0.00    -0.266 A 
ATOM     15  C   UNL     1      45.758  14.045  18.524  0.00  0.00    +0.220 A 
ATOM     18  C   UNL     1      45.750  13.015  17.601  0.00  0.00    -0.054 A 
ATOM     19  C   UNL     1      46.650  13.021  16.541  0.00  0.00    +0.193 A 
ATOM     22  C   UNL     1      47.564  14.054  16.396  0.00  0.00    -0.029 A 
ATOM     23  C   UNL     1      47.586  15.094  17.311  0.00  0.00    +0.183 A 
ATOM     24  O   UNL     1      45.955  16.255  20.293  0.00  0.00    -0.452 OA
ATOM     25  O   UNL     1      48.465  16.110  17.181  0.00  0.00    -0.218 OA
ENDROOT
BRANCH  11  10
ATOM      1  C   UNL     1      49.463  19.365  18.603  0.00  0.00    +0.075 A 
ATOM      2  C   UNL     1      50.396  20.360  18.401  0.00  0.00    +0.016 A 
ATOM      3  C   UNL     1      51.385  20.205  17.441  0.00  0.00    +0.110 A 
ATOM      6  C   UNL     1      51.442  19.041  16.675  0.00  0.00    +0.079 A 
ATOM      9  C   UNL     1      50.511  18.040  16.871  0.00  0.00    +0.056 A 
ATOM     10  C   UNL     1      49.514  18.196  17.839  0.00  0.00    -0.066 A 
BRANCH   3   4
ATOM      4  O   UNL     1      52.301  21.189  17.246  0.00  0.00    -0.485 OA
ATOM      5  H   UNL     1      52.667  21.553  18.064  0.00  0.00    +0.395 HD
ENDBRANCH   3   4
BRANCH   6   7
ATOM      7  O   UNL     1      52.412  18.893  15.735  0.00  0.00    -0.483 OA
ATOM      8  H   UNL     1      53.279  19.224  16.009  0.00  0.00    +0.392 HD
ENDBRANCH   6   7
ENDBRANCH  11  10
BRANCH  15  16
ATOM     16  O   UNL     1      44.880  14.040  19.560  0.00  0.00    -0.472 OA
ATOM     17  H   UNL     1      45.293  14.170  20.425  0.00  0.00    +0.403 HD
ENDBRANCH  15  16
BRANCH  19  20
ATOM     20  O   UNL     1      46.634  12.006  15.641  0.00  0.00    -0.487 OA
ATOM     21  H   UNL     1      46.011  12.135  14.912  0.00  0.00    +0.404 HD
ENDBRANCH  19  20
TORSDOF 5
ENDMDL
