MODEL 1
REMARK VINA RESULT:      -4.2      0.000      0.000
REMARK  Name = ZINC95486086
REMARK  19 active torsions:
REMARK  status: ('A' for Active; 'I' for Inactive)
REMARK    1  A    between atoms: C1_1  and  C2_2
REMARK    2  A    between atoms: C2_2  and  C3_3
REMARK    3  A    between atoms: C4_4  and  C5_5
REMARK    4  A    between atoms: C4_4  and  C6_6
REMARK    5  A    between atoms: C6_6  and  C7_7
REMARK    6  A    between atoms: C7_7  and  C8_8
REMARK    7  A    between atoms: C8_8  and  C9_9
REMARK    8  A    between atoms: C9_9  and  C10_11
REMARK    9  A    between atoms: C9_9  and  C11_12
REMARK   10  A    between atoms: C11_12  and  C12_13
REMARK   11  A    between atoms: C12_13  and  C13_14
REMARK   12  A    between atoms: C13_14  and  C14_15
REMARK   13  A    between atoms: C14_15  and  C15_17
REMARK   14  A    between atoms: C14_15  and  C16_18
REMARK   15  A    between atoms: C16_18  and  C17_19
REMARK   16  A    between atoms: C17_19  and  C18_20
REMARK   17  A    between atoms: C18_20  and  C19_21
REMARK   18  A    between atoms: C19_21  and  C20_22
REMARK   19  A    between atoms: C19_21  and  C21_23
REMARK                            x       y       z     vdW  Elec       q    Type
REMARK                         _______ _______ _______ _____ _____    ______ ____
ROOT
ATOM      9  C   UNL     1      49.697  20.786  18.504  0.00  0.00    +0.005 C 
ENDROOT
BRANCH   9   8
ATOM      8  C   UNL     1      51.043  21.409  18.126  0.00  0.00    -0.024 C 
ATOM     20  C   UNL     1      52.103  20.992  19.148  0.00  0.00    +0.012 C 
BRANCH   8   7
ATOM      7  C   UNL     1      51.457  20.923  16.736  0.00  0.00    +0.006 C 
BRANCH   7   6
ATOM      6  C   UNL     1      52.382  19.712  16.873  0.00  0.00    +0.012 C 
BRANCH   6   5
ATOM      5  C   UNL     1      51.625  18.443  16.478  0.00  0.00    +0.050 C 
BRANCH   5   4
ATOM      3  C   UNL     1      50.272  17.007  17.915  0.00  0.00    -0.058 C 
ATOM      4  C   UNL     1      51.432  17.573  17.693  0.00  0.00    -0.129 C 
ATOM     21  C   UNL     1      52.572  17.355  18.653  0.00  0.00    +0.070 C 
BRANCH   3   2
ATOM      1  C   UNL     1      47.993  16.293  17.243  0.00  0.00    +0.013 C 
ATOM      2  C   UNL     1      49.090  17.341  17.040  0.00  0.00    +0.040 C 
ENDBRANCH   3   2
ENDBRANCH   5   4
ENDBRANCH   6   5
ENDBRANCH   7   6
ENDBRANCH   8   7
ENDBRANCH   9   8
BRANCH   9  10
ATOM     10  C   UNL     1      49.674  20.495  20.006  0.00  0.00    +0.003 C 
BRANCH  10  11
ATOM     11  C   UNL     1      48.789  19.275  20.276  0.00  0.00    +0.005 C 
BRANCH  11  12
ATOM     12  C   UNL     1      47.324  19.710  20.329  0.00  0.00    -0.024 C 
ATOM     19  C   UNL     1      46.719  19.305  21.674  0.00  0.00    +0.012 C 
BRANCH  12  13
ATOM     13  C   UNL     1      46.550  19.032  19.197  0.00  0.00    +0.005 C 
BRANCH  13  14
ATOM     14  C   UNL     1      45.456  19.974  18.690  0.00  0.00    +0.003 C 
BRANCH  14  15
ATOM     15  C   UNL     1      45.954  21.418  18.756  0.00  0.00    +0.005 C 
BRANCH  15  16
ATOM     16  C   UNL     1      44.885  22.297  19.411  0.00  0.00    -0.031 C 
ATOM     17  C   UNL     1      45.446  22.906  20.698  0.00  0.00    +0.012 C 
ATOM     18  C   UNL     1      43.658  21.446  19.742  0.00  0.00    +0.012 C 
ENDBRANCH  15  16
ENDBRANCH  14  15
ENDBRANCH  13  14
ENDBRANCH  12  13
ENDBRANCH  11  12
ENDBRANCH  10  11
ENDBRANCH   9  10
TORSDOF 13
ENDMDL
MODEL 2
REMARK VINA RESULT:      -4.2      1.152      2.217
REMARK  Name = ZINC95486086
REMARK  19 active torsions:
REMARK  status: ('A' for Active; 'I' for Inactive)
REMARK    1  A    between atoms: C1_1  and  C2_2
REMARK    2  A    between atoms: C2_2  and  C3_3
REMARK    3  A    between atoms: C4_4  and  C5_5
REMARK    4  A    between atoms: C4_4  and  C6_6
REMARK    5  A    between atoms: C6_6  and  C7_7
REMARK    6  A    between atoms: C7_7  and  C8_8
REMARK    7  A    between atoms: C8_8  and  C9_9
REMARK    8  A    between atoms: C9_9  and  C10_11
REMARK    9  A    between atoms: C9_9  and  C11_12
REMARK   10  A    between atoms: C11_12  and  C12_13
REMARK   11  A    between atoms: C12_13  and  C13_14
REMARK   12  A    between atoms: C13_14  and  C14_15
REMARK   13  A    between atoms: C14_15  and  C15_17
REMARK   14  A    between atoms: C14_15  and  C16_18
REMARK   15  A    between atoms: C16_18  and  C17_19
REMARK   16  A    between atoms: C17_19  and  C18_20
REMARK   17  A    between atoms: C18_20  and  C19_21
REMARK   18  A    between atoms: C19_21  and  C20_22
REMARK   19  A    between atoms: C19_21  and  C21_23
REMARK                            x       y       z     vdW  Elec       q    Type
REMARK                         _______ _______ _______ _____ _____    ______ ____
ROOT
ATOM      9  C   UNL     1      52.168  20.401  18.080  0.00  0.00    +0.005 C 
ENDROOT
BRANCH   9   8
ATOM      8  C   UNL     1      51.423  20.215  16.755  0.00  0.00    -0.024 C 
ATOM     20  C   UNL     1      51.701  21.412  15.843  0.00  0.00    +0.012 C 
BRANCH   8   7
ATOM      7  C   UNL     1      51.905  18.933  16.075  0.00  0.00    +0.006 C 
BRANCH   7   6
ATOM      6  C   UNL     1      51.418  17.720  16.871  0.00  0.00    +0.012 C 
BRANCH   6   5
ATOM      5  C   UNL     1      49.890  17.684  16.863  0.00  0.00    +0.050 C 
BRANCH   5   4
ATOM      3  C   UNL     1      48.111  17.007  18.392  0.00  0.00    -0.058 C 
ATOM      4  C   UNL     1      49.390  17.215  18.205  0.00  0.00    -0.129 C 
ATOM     21  C   UNL     1      50.362  16.988  19.334  0.00  0.00    +0.070 C 
BRANCH   3   2
ATOM      1  C   UNL     1      46.537  16.100  16.702  0.00  0.00    +0.013 C 
ATOM      2  C   UNL     1      47.122  17.374  17.313  0.00  0.00    +0.040 C 
ENDBRANCH   3   2
ENDBRANCH   5   4
ENDBRANCH   6   5
ENDBRANCH   7   6
ENDBRANCH   8   7
ENDBRANCH   9   8
BRANCH   9  10
ATOM     10  C   UNL     1      51.267  21.137  19.073  0.00  0.00    +0.003 C 
BRANCH  10  11
ATOM     11  C   UNL     1      49.801  20.841  18.749  0.00  0.00    +0.005 C 
BRANCH  11  12
ATOM     12  C   UNL     1      48.974  20.896  20.035  0.00  0.00    -0.024 C 
ATOM     19  C   UNL     1      49.764  20.258  21.179  0.00  0.00    +0.012 C 
BRANCH  12  13
ATOM     13  C   UNL     1      47.665  20.132  19.831  0.00  0.00    +0.005 C 
BRANCH  13  14
ATOM     14  C   UNL     1      46.793  20.874  18.816  0.00  0.00    +0.003 C 
BRANCH  14  15
ATOM     15  C   UNL     1      45.381  20.284  18.828  0.00  0.00    +0.005 C 
BRANCH  15  16
ATOM     16  C   UNL     1      44.474  21.151  19.704  0.00  0.00    -0.031 C 
ATOM     17  C   UNL     1      43.016  20.944  19.290  0.00  0.00    +0.012 C 
ATOM     18  C   UNL     1      44.851  22.623  19.527  0.00  0.00    +0.012 C 
ENDBRANCH  15  16
ENDBRANCH  14  15
ENDBRANCH  13  14
ENDBRANCH  12  13
ENDBRANCH  11  12
ENDBRANCH  10  11
ENDBRANCH   9  10
TORSDOF 13
ENDMDL
MODEL 3
REMARK VINA RESULT:      -4.1      1.891      7.056
REMARK  Name = ZINC95486086
REMARK  19 active torsions:
REMARK  status: ('A' for Active; 'I' for Inactive)
REMARK    1  A    between atoms: C1_1  and  C2_2
REMARK    2  A    between atoms: C2_2  and  C3_3
REMARK    3  A    between atoms: C4_4  and  C5_5
REMARK    4  A    between atoms: C4_4  and  C6_6
REMARK    5  A    between atoms: C6_6  and  C7_7
REMARK    6  A    between atoms: C7_7  and  C8_8
REMARK    7  A    between atoms: C8_8  and  C9_9
REMARK    8  A    between atoms: C9_9  and  C10_11
REMARK    9  A    between atoms: C9_9  and  C11_12
REMARK   10  A    between atoms: C11_12  and  C12_13
REMARK   11  A    between atoms: C12_13  and  C13_14
REMARK   12  A    between atoms: C13_14  and  C14_15
REMARK   13  A    between atoms: C14_15  and  C15_17
REMARK   14  A    between atoms: C14_15  and  C16_18
REMARK   15  A    between atoms: C16_18  and  C17_19
REMARK   16  A    between atoms: C17_19  and  C18_20
REMARK   17  A    between atoms: C18_20  and  C19_21
REMARK   18  A    between atoms: C19_21  and  C20_22
REMARK   19  A    between atoms: C19_21  and  C21_23
REMARK                            x       y       z     vdW  Elec       q    Type
REMARK                         _______ _______ _______ _____ _____    ______ ____
ROOT
ATOM      9  C   UNL     1      47.602  21.118  20.430  0.00  0.00    +0.005 C 
ENDROOT
BRANCH   9   8
ATOM      8  C   UNL     1      46.078  21.185  20.304  0.00  0.00    -0.024 C 
ATOM     20  C   UNL     1      45.599  22.594  20.660  0.00  0.00    +0.012 C 
BRANCH   8   7
ATOM      7  C   UNL     1      45.671  20.855  18.867  0.00  0.00    +0.006 C 
BRANCH   7   6
ATOM      6  C   UNL     1      44.798  19.597  18.861  0.00  0.00    +0.012 C 
BRANCH   6   5
ATOM      5  C   UNL     1      43.372  19.967  18.452  0.00  0.00    +0.050 C 
BRANCH   5   4
ATOM      3  C   UNL     1      41.216  20.195  19.575  0.00  0.00    -0.058 C 
ATOM      4  C   UNL     1      42.438  19.724  19.609  0.00  0.00    -0.129 C 
ATOM     21  C   UNL     1      42.909  18.941  20.808  0.00  0.00    +0.070 C 
BRANCH   3   2
ATOM      1  C   UNL     1      39.314  21.468  18.619  0.00  0.00    +0.013 C 
ATOM      2  C   UNL     1      40.789  21.102  18.448  0.00  0.00    +0.040 C 
ENDBRANCH   3   2
ENDBRANCH   5   4
ENDBRANCH   6   5
ENDBRANCH   7   6
ENDBRANCH   8   7
ENDBRANCH   9   8
BRANCH   9  10
ATOM     10  C   UNL     1      48.211  20.754  19.075  0.00  0.00    +0.003 C 
BRANCH  10  11
ATOM     11  C   UNL     1      48.978  19.435  19.198  0.00  0.00    +0.005 C 
BRANCH  11  12
ATOM     12  C   UNL     1      48.251  18.347  18.406  0.00  0.00    -0.024 C 
ATOM     19  C   UNL     1      47.726  17.279  19.368  0.00  0.00    +0.012 C 
BRANCH  12  13
ATOM     13  C   UNL     1      49.222  17.706  17.413  0.00  0.00    +0.005 C 
BRANCH  13  14
ATOM     14  C   UNL     1      50.628  18.264  17.641  0.00  0.00    +0.003 C 
BRANCH  14  15
ATOM     15  C   UNL     1      51.208  18.747  16.310  0.00  0.00    +0.005 C 
BRANCH  15  16
ATOM     16  C   UNL     1      52.176  19.904  16.566  0.00  0.00    -0.031 C 
ATOM     17  C   UNL     1      52.684  19.834  18.008  0.00  0.00    +0.012 C 
ATOM     18  C   UNL     1      51.452  21.233  16.344  0.00  0.00    +0.012 C 
ENDBRANCH  15  16
ENDBRANCH  14  15
ENDBRANCH  13  14
ENDBRANCH  12  13
ENDBRANCH  11  12
ENDBRANCH  10  11
ENDBRANCH   9  10
TORSDOF 13
ENDMDL
MODEL 4
REMARK VINA RESULT:      -4.1      1.834      4.625
REMARK  Name = ZINC95486086
REMARK  19 active torsions:
REMARK  status: ('A' for Active; 'I' for Inactive)
REMARK    1  A    between atoms: C1_1  and  C2_2
REMARK    2  A    between atoms: C2_2  and  C3_3
REMARK    3  A    between atoms: C4_4  and  C5_5
REMARK    4  A    between atoms: C4_4  and  C6_6
REMARK    5  A    between atoms: C6_6  and  C7_7
REMARK    6  A    between atoms: C7_7  and  C8_8
REMARK    7  A    between atoms: C8_8  and  C9_9
REMARK    8  A    between atoms: C9_9  and  C10_11
REMARK    9  A    between atoms: C9_9  and  C11_12
REMARK   10  A    between atoms: C11_12  and  C12_13
REMARK   11  A    between atoms: C12_13  and  C13_14
REMARK   12  A    between atoms: C13_14  and  C14_15
REMARK   13  A    between atoms: C14_15  and  C15_17
REMARK   14  A    between atoms: C14_15  and  C16_18
REMARK   15  A    between atoms: C16_18  and  C17_19
REMARK   16  A    between atoms: C17_19  and  C18_20
REMARK   17  A    between atoms: C18_20  and  C19_21
REMARK   18  A    between atoms: C19_21  and  C20_22
REMARK   19  A    between atoms: C19_21  and  C21_23
REMARK                            x       y       z     vdW  Elec       q    Type
REMARK                         _______ _______ _______ _____ _____    ______ ____
ROOT
ATOM      9  C   UNL     1      45.794  20.901  18.672  0.00  0.00    +0.005 C 
ENDROOT
BRANCH   9   8
ATOM      8  C   UNL     1      47.057  21.183  19.489  0.00  0.00    -0.024 C 
ATOM     20  C   UNL     1      46.734  21.074  20.981  0.00  0.00    +0.012 C 
BRANCH   8   7
ATOM      7  C   UNL     1      48.137  20.163  19.125  0.00  0.00    +0.006 C 
BRANCH   7   6
ATOM      6  C   UNL     1      49.495  20.657  19.631  0.00  0.00    +0.012 C 
BRANCH   6   5
ATOM      5  C   UNL     1      50.363  21.070  18.441  0.00  0.00    +0.050 C 
BRANCH   5   4
ATOM      3  C   UNL     1      52.540  20.018  18.105  0.00  0.00    -0.058 C 
ATOM      4  C   UNL     1      51.817  20.872  18.786  0.00  0.00    -0.129 C 
ATOM     21  C   UNL     1      52.438  21.653  19.914  0.00  0.00    +0.070 C 
BRANCH   3   2
ATOM      1  C   UNL     1      52.197  19.659  15.674  0.00  0.00    +0.013 C 
ATOM      2  C   UNL     1      51.888  19.129  17.076  0.00  0.00    +0.040 C 
ENDBRANCH   3   2
ENDBRANCH   5   4
ENDBRANCH   6   5
ENDBRANCH   7   6
ENDBRANCH   8   7
ENDBRANCH   9   8
BRANCH   9  10
ATOM     10  C   UNL     1      44.566  21.009  19.578  0.00  0.00    +0.003 C 
BRANCH  10  11
ATOM     11  C   UNL     1      43.401  20.238  18.953  0.00  0.00    +0.005 C 
BRANCH  11  12
ATOM     12  C   UNL     1      42.873  19.212  19.957  0.00  0.00    -0.024 C 
ATOM     19  C   UNL     1      41.362  19.388  20.121  0.00  0.00    +0.012 C 
BRANCH  12  13
ATOM     13  C   UNL     1      43.559  19.422  21.307  0.00  0.00    +0.005 C 
BRANCH  13  14
ATOM     14  C   UNL     1      44.379  18.179  21.662  0.00  0.00    +0.003 C 
BRANCH  14  15
ATOM     15  C   UNL     1      44.240  17.140  20.547  0.00  0.00    +0.005 C 
BRANCH  15  16
ATOM     16  C   UNL     1      45.629  16.745  20.042  0.00  0.00    -0.031 C 
ATOM     17  C   UNL     1      46.697  17.393  20.927  0.00  0.00    +0.012 C 
ATOM     18  C   UNL     1      45.803  17.223  18.600  0.00  0.00    +0.012 C 
ENDBRANCH  15  16
ENDBRANCH  14  15
ENDBRANCH  13  14
ENDBRANCH  12  13
ENDBRANCH  11  12
ENDBRANCH  10  11
ENDBRANCH   9  10
TORSDOF 13
ENDMDL
MODEL 5
REMARK VINA RESULT:      -4.0      1.635      5.814
REMARK  Name = ZINC95486086
REMARK  19 active torsions:
REMARK  status: ('A' for Active; 'I' for Inactive)
REMARK    1  A    between atoms: C1_1  and  C2_2
REMARK    2  A    between atoms: C2_2  and  C3_3
REMARK    3  A    between atoms: C4_4  and  C5_5
REMARK    4  A    between atoms: C4_4  and  C6_6
REMARK    5  A    between atoms: C6_6  and  C7_7
REMARK    6  A    between atoms: C7_7  and  C8_8
REMARK    7  A    between atoms: C8_8  and  C9_9
REMARK    8  A    between atoms: C9_9  and  C10_11
REMARK    9  A    between atoms: C9_9  and  C11_12
REMARK   10  A    between atoms: C11_12  and  C12_13
REMARK   11  A    between atoms: C12_13  and  C13_14
REMARK   12  A    between atoms: C13_14  and  C14_15
REMARK   13  A    between atoms: C14_15  and  C15_17
REMARK   14  A    between atoms: C14_15  and  C16_18
REMARK   15  A    between atoms: C16_18  and  C17_19
REMARK   16  A    between atoms: C17_19  and  C18_20
REMARK   17  A    between atoms: C18_20  and  C19_21
REMARK   18  A    between atoms: C19_21  and  C20_22
REMARK   19  A    between atoms: C19_21  and  C21_23
REMARK                            x       y       z     vdW  Elec       q    Type
REMARK                         _______ _______ _______ _____ _____    ______ ____
ROOT
ATOM      9  C   UNL     1      49.516  20.611  20.222  0.00  0.00    +0.005 C 
ENDROOT
BRANCH   9   8
ATOM      8  C   UNL     1      47.985  20.613  20.221  0.00  0.00    -0.024 C 
ATOM     20  C   UNL     1      47.476  21.676  21.197  0.00  0.00    +0.012 C 
BRANCH   8   7
ATOM      7  C   UNL     1      47.476  20.927  18.813  0.00  0.00    +0.006 C 
BRANCH   7   6
ATOM      6  C   UNL     1      46.047  20.402  18.659  0.00  0.00    +0.012 C 
BRANCH   6   5
ATOM      5  C   UNL     1      46.010  18.912  19.002  0.00  0.00    +0.050 C 
BRANCH   5   4
ATOM      3  C   UNL     1      44.608  17.418  20.329  0.00  0.00    -0.058 C 
ATOM      4  C   UNL     1      44.890  18.647  19.975  0.00  0.00    -0.129 C 
ATOM     21  C   UNL     1      44.094  19.795  20.539  0.00  0.00    +0.070 C 
BRANCH   3   2
ATOM      1  C   UNL     1      46.201  15.547  20.668  0.00  0.00    +0.013 C 
ATOM      2  C   UNL     1      45.303  16.261  19.656  0.00  0.00    +0.040 C 
ENDBRANCH   3   2
ENDBRANCH   5   4
ENDBRANCH   6   5
ENDBRANCH   7   6
ENDBRANCH   8   7
ENDBRANCH   9   8
BRANCH   9  10
ATOM     10  C   UNL     1      50.027  20.990  18.831  0.00  0.00    +0.003 C 
BRANCH  10  11
ATOM     11  C   UNL     1      51.535  21.244  18.893  0.00  0.00    +0.005 C 
BRANCH  11  12
ATOM     12  C   UNL     1      52.204  20.648  17.652  0.00  0.00    -0.024 C 
ATOM     19  C   UNL     1      51.474  21.130  16.397  0.00  0.00    +0.012 C 
BRANCH  12  13
ATOM     13  C   UNL     1      52.141  19.121  17.724  0.00  0.00    +0.005 C 
BRANCH  13  14
ATOM     14  C   UNL     1      51.233  18.595  16.610  0.00  0.00    +0.003 C 
BRANCH  14  15
ATOM     15  C   UNL     1      50.579  17.287  17.059  0.00  0.00    +0.005 C 
BRANCH  15  16
ATOM     16  C   UNL     1      49.243  17.592  17.740  0.00  0.00    -0.031 C 
ATOM     17  C   UNL     1      49.306  17.154  19.205  0.00  0.00    +0.012 C 
ATOM     18  C   UNL     1      48.123  16.833  17.027  0.00  0.00    +0.012 C 
ENDBRANCH  15  16
ENDBRANCH  14  15
ENDBRANCH  13  14
ENDBRANCH  12  13
ENDBRANCH  11  12
ENDBRANCH  10  11
ENDBRANCH   9  10
TORSDOF 13
ENDMDL
MODEL 6
REMARK VINA RESULT:      -4.0      1.120      3.196
REMARK  Name = ZINC95486086
REMARK  19 active torsions:
REMARK  status: ('A' for Active; 'I' for Inactive)
REMARK    1  A    between atoms: C1_1  and  C2_2
REMARK    2  A    between atoms: C2_2  and  C3_3
REMARK    3  A    between atoms: C4_4  and  C5_5
REMARK    4  A    between atoms: C4_4  and  C6_6
REMARK    5  A    between atoms: C6_6  and  C7_7
REMARK    6  A    between atoms: C7_7  and  C8_8
REMARK    7  A    between atoms: C8_8  and  C9_9
REMARK    8  A    between atoms: C9_9  and  C10_11
REMARK    9  A    between atoms: C9_9  and  C11_12
REMARK   10  A    between atoms: C11_12  and  C12_13
REMARK   11  A    between atoms: C12_13  and  C13_14
REMARK   12  A    between atoms: C13_14  and  C14_15
REMARK   13  A    between atoms: C14_15  and  C15_17
REMARK   14  A    between atoms: C14_15  and  C16_18
REMARK   15  A    between atoms: C16_18  and  C17_19
REMARK   16  A    between atoms: C17_19  and  C18_20
REMARK   17  A    between atoms: C18_20  and  C19_21
REMARK   18  A    between atoms: C19_21  and  C20_22
REMARK   19  A    between atoms: C19_21  and  C21_23
REMARK                            x       y       z     vdW  Elec       q    Type
REMARK                         _______ _______ _______ _____ _____    ______ ____
ROOT
ATOM      9  C   UNL     1      50.237  17.393  18.335  0.00  0.00    +0.005 C 
ENDROOT
BRANCH   9   8
ATOM      8  C   UNL     1      51.397  17.694  17.384  0.00  0.00    -0.024 C 
ATOM     20  C   UNL     1      51.761  16.427  16.606  0.00  0.00    +0.012 C 
BRANCH   8   7
ATOM      7  C   UNL     1      50.980  18.792  16.404  0.00  0.00    +0.006 C 
BRANCH   7   6
ATOM      6  C   UNL     1      51.860  20.027  16.617  0.00  0.00    +0.012 C 
BRANCH   6   5
ATOM      5  C   UNL     1      51.084  21.073  17.419  0.00  0.00    +0.050 C 
BRANCH   5   4
ATOM      3  C   UNL     1      50.624  20.789  19.800  0.00  0.00    -0.058 C 
ATOM      4  C   UNL     1      51.510  21.018  18.863  0.00  0.00    -0.129 C 
ATOM     21  C   UNL     1      52.956  21.230  19.231  0.00  0.00    +0.070 C 
BRANCH   3   2
ATOM      1  C   UNL     1      48.352  20.356  20.698  0.00  0.00    +0.013 C 
ATOM      2  C   UNL     1      49.158  20.725  19.450  0.00  0.00    +0.040 C 
ENDBRANCH   3   2
ENDBRANCH   5   4
ENDBRANCH   6   5
ENDBRANCH   7   6
ENDBRANCH   8   7
ENDBRANCH   9   8
BRANCH   9  10
ATOM     10  C   UNL     1      48.912  17.515  17.580  0.00  0.00    +0.003 C 
BRANCH  10  11
ATOM     11  C   UNL     1      47.851  16.651  18.267  0.00  0.00    +0.005 C 
BRANCH  11  12
ATOM     12  C   UNL     1      46.794  17.554  18.904  0.00  0.00    -0.024 C 
ATOM     19  C   UNL     1      45.575  16.716  19.296  0.00  0.00    +0.012 C 
BRANCH  12  13
ATOM     13  C   UNL     1      46.372  18.630  17.903  0.00  0.00    +0.005 C 
BRANCH  13  14
ATOM     14  C   UNL     1      45.148  19.375  18.439  0.00  0.00    +0.003 C 
BRANCH  14  15
ATOM     15  C   UNL     1      45.498  20.849  18.648  0.00  0.00    +0.005 C 
BRANCH  15  16
ATOM     16  C   UNL     1      44.656  21.416  19.793  0.00  0.00    -0.031 C 
ATOM     17  C   UNL     1      45.404  22.578  20.450  0.00  0.00    +0.012 C 
ATOM     18  C   UNL     1      44.402  20.320  20.830  0.00  0.00    +0.012 C 
ENDBRANCH  15  16
ENDBRANCH  14  15
ENDBRANCH  13  14
ENDBRANCH  12  13
ENDBRANCH  11  12
ENDBRANCH  10  11
ENDBRANCH   9  10
TORSDOF 13
ENDMDL
MODEL 7
REMARK VINA RESULT:      -4.0      1.667      3.257
REMARK  Name = ZINC95486086
REMARK  19 active torsions:
REMARK  status: ('A' for Active; 'I' for Inactive)
REMARK    1  A    between atoms: C1_1  and  C2_2
REMARK    2  A    between atoms: C2_2  and  C3_3
REMARK    3  A    between atoms: C4_4  and  C5_5
REMARK    4  A    between atoms: C4_4  and  C6_6
REMARK    5  A    between atoms: C6_6  and  C7_7
REMARK    6  A    between atoms: C7_7  and  C8_8
REMARK    7  A    between atoms: C8_8  and  C9_9
REMARK    8  A    between atoms: C9_9  and  C10_11
REMARK    9  A    between atoms: C9_9  and  C11_12
REMARK   10  A    between atoms: C11_12  and  C12_13
REMARK   11  A    between atoms: C12_13  and  C13_14
REMARK   12  A    between atoms: C13_14  and  C14_15
REMARK   13  A    between atoms: C14_15  and  C15_17
REMARK   14  A    between atoms: C14_15  and  C16_18
REMARK   15  A    between atoms: C16_18  and  C17_19
REMARK   16  A    between atoms: C17_19  and  C18_20
REMARK   17  A    between atoms: C18_20  and  C19_21
REMARK   18  A    between atoms: C19_21  and  C20_22
REMARK   19  A    between atoms: C19_21  and  C21_23
REMARK                            x       y       z     vdW  Elec       q    Type
REMARK                         _______ _______ _______ _____ _____    ______ ____
ROOT
ATOM      9  C   UNL     1      48.929  20.535  19.102  0.00  0.00    +0.005 C 
ENDROOT
BRANCH   9   8
ATOM      8  C   UNL     1      49.998  20.652  20.192  0.00  0.00    -0.024 C 
ATOM     20  C   UNL     1      49.375  20.330  21.552  0.00  0.00    +0.012 C 
BRANCH   8   7
ATOM      7  C   UNL     1      51.131  19.666  19.903  0.00  0.00    +0.006 C 
BRANCH   7   6
ATOM      6  C   UNL     1      52.255  20.386  19.154  0.00  0.00    +0.012 C 
BRANCH   6   5
ATOM      5  C   UNL     1      52.724  19.521  17.983  0.00  0.00    +0.050 C 
BRANCH   5   4
ATOM      3  C   UNL     1      51.210  18.790  16.212  0.00  0.00    -0.058 C 
ATOM      4  C   UNL     1      51.848  19.781  16.785  0.00  0.00    -0.129 C 
ATOM     21  C   UNL     1      51.708  21.179  16.242  0.00  0.00    +0.070 C 
BRANCH   3   2
ATOM      1  C   UNL     1      50.197  16.805  17.301  0.00  0.00    +0.013 C 
ATOM      2  C   UNL     1      51.465  17.372  16.659  0.00  0.00    +0.040 C 
ENDBRANCH   3   2
ENDBRANCH   5   4
ENDBRANCH   6   5
ENDBRANCH   7   6
ENDBRANCH   8   7
ENDBRANCH   9   8
BRANCH   9  10
ATOM     10  C   UNL     1      47.582  21.003  19.655  0.00  0.00    +0.003 C 
BRANCH  10  11
ATOM     11  C   UNL     1      46.498  20.807  18.593  0.00  0.00    +0.005 C 
BRANCH  11  12
ATOM     12  C   UNL     1      45.133  21.159  19.187  0.00  0.00    -0.024 C 
ATOM     19  C   UNL     1      45.215  22.517  19.887  0.00  0.00    +0.012 C 
BRANCH  12  13
ATOM     13  C   UNL     1      44.728  20.087  20.200  0.00  0.00    +0.005 C 
BRANCH  13  14
ATOM     14  C   UNL     1      43.203  19.966  20.233  0.00  0.00    +0.003 C 
BRANCH  14  15
ATOM     15  C   UNL     1      42.650  20.082  18.812  0.00  0.00    +0.005 C 
BRANCH  15  16
ATOM     16  C   UNL     1      41.166  20.452  18.870  0.00  0.00    -0.031 C 
ATOM     17  C   UNL     1      40.402  19.661  17.806  0.00  0.00    +0.012 C 
ATOM     18  C   UNL     1      41.003  21.950  18.608  0.00  0.00    +0.012 C 
ENDBRANCH  15  16
ENDBRANCH  14  15
ENDBRANCH  13  14
ENDBRANCH  12  13
ENDBRANCH  11  12
ENDBRANCH  10  11
ENDBRANCH   9  10
TORSDOF 13
ENDMDL
MODEL 8
REMARK VINA RESULT:      -3.9      1.305      6.063
REMARK  Name = ZINC95486086
REMARK  19 active torsions:
REMARK  status: ('A' for Active; 'I' for Inactive)
REMARK    1  A    between atoms: C1_1  and  C2_2
REMARK    2  A    between atoms: C2_2  and  C3_3
REMARK    3  A    between atoms: C4_4  and  C5_5
REMARK    4  A    between atoms: C4_4  and  C6_6
REMARK    5  A    between atoms: C6_6  and  C7_7
REMARK    6  A    between atoms: C7_7  and  C8_8
REMARK    7  A    between atoms: C8_8  and  C9_9
REMARK    8  A    between atoms: C9_9  and  C10_11
REMARK    9  A    between atoms: C9_9  and  C11_12
REMARK   10  A    between atoms: C11_12  and  C12_13
REMARK   11  A    between atoms: C12_13  and  C13_14
REMARK   12  A    between atoms: C13_14  and  C14_15
REMARK   13  A    between atoms: C14_15  and  C15_17
REMARK   14  A    between atoms: C14_15  and  C16_18
REMARK   15  A    between atoms: C16_18  and  C17_19
REMARK   16  A    between atoms: C17_19  and  C18_20
REMARK   17  A    between atoms: C18_20  and  C19_21
REMARK   18  A    between atoms: C19_21  and  C20_22
REMARK   19  A    between atoms: C19_21  and  C21_23
REMARK                            x       y       z     vdW  Elec       q    Type
REMARK                         _______ _______ _______ _____ _____    ______ ____
ROOT
ATOM      9  C   UNL     1      49.574  20.985  18.730  0.00  0.00    +0.005 C 
ENDROOT
BRANCH   9   8
ATOM      8  C   UNL     1      49.207  20.140  19.952  0.00  0.00    -0.024 C 
ATOM     20  C   UNL     1      49.716  20.829  21.220  0.00  0.00    +0.012 C 
BRANCH   8   7
ATOM      7  C   UNL     1      47.687  19.986  20.029  0.00  0.00    +0.006 C 
BRANCH   7   6
ATOM      6  C   UNL     1      47.047  20.627  18.795  0.00  0.00    +0.012 C 
BRANCH   6   5
ATOM      5  C   UNL     1      45.587  20.186  18.691  0.00  0.00    +0.050 C 
BRANCH   5   4
ATOM      3  C   UNL     1      43.826  20.521  20.349  0.00  0.00    -0.058 C 
ATOM      4  C   UNL     1      44.733  21.061  19.573  0.00  0.00    -0.129 C 
ATOM     21  C   UNL     1      44.920  22.556  19.560  0.00  0.00    +0.070 C 
BRANCH   3   2
ATOM      1  C   UNL     1      42.451  18.673  21.269  0.00  0.00    +0.013 C 
ATOM      2  C   UNL     1      43.536  19.044  20.256  0.00  0.00    +0.040 C 
ENDBRANCH   3   2
ENDBRANCH   5   4
ENDBRANCH   6   5
ENDBRANCH   7   6
ENDBRANCH   8   7
ENDBRANCH   9   8
BRANCH   9  10
ATOM     10  C   UNL     1      51.096  21.059  18.598  0.00  0.00    +0.003 C 
BRANCH  10  11
ATOM     11  C   UNL     1      51.661  19.648  18.413  0.00  0.00    +0.005 C 
BRANCH  11  12
ATOM     12  C   UNL     1      52.065  19.449  16.951  0.00  0.00    -0.024 C 
ATOM     19  C   UNL     1      52.048  20.797  16.227  0.00  0.00    +0.012 C 
BRANCH  12  13
ATOM     13  C   UNL     1      51.078  18.496  16.276  0.00  0.00    +0.005 C 
BRANCH  13  14
ATOM     14  C   UNL     1      50.407  17.619  17.336  0.00  0.00    +0.003 C 
BRANCH  14  15
ATOM     15  C   UNL     1      48.911  17.509  17.035  0.00  0.00    +0.005 C 
BRANCH  15  16
ATOM     16  C   UNL     1      48.197  16.870  18.229  0.00  0.00    -0.031 C 
ATOM     17  C   UNL     1      48.811  15.497  18.514  0.00  0.00    +0.012 C 
ATOM     18  C   UNL     1      46.711  16.707  17.906  0.00  0.00    +0.012 C 
ENDBRANCH  15  16
ENDBRANCH  14  15
ENDBRANCH  13  14
ENDBRANCH  12  13
ENDBRANCH  11  12
ENDBRANCH  10  11
ENDBRANCH   9  10
TORSDOF 13
ENDMDL
MODEL 9
REMARK VINA RESULT:      -3.8      1.425      6.015
REMARK  Name = ZINC95486086
REMARK  19 active torsions:
REMARK  status: ('A' for Active; 'I' for Inactive)
REMARK    1  A    between atoms: C1_1  and  C2_2
REMARK    2  A    between atoms: C2_2  and  C3_3
REMARK    3  A    between atoms: C4_4  and  C5_5
REMARK    4  A    between atoms: C4_4  and  C6_6
REMARK    5  A    between atoms: C6_6  and  C7_7
REMARK    6  A    between atoms: C7_7  and  C8_8
REMARK    7  A    between atoms: C8_8  and  C9_9
REMARK    8  A    between atoms: C9_9  and  C10_11
REMARK    9  A    between atoms: C9_9  and  C11_12
REMARK   10  A    between atoms: C11_12  and  C12_13
REMARK   11  A    between atoms: C12_13  and  C13_14
REMARK   12  A    between atoms: C13_14  and  C14_15
REMARK   13  A    between atoms: C14_15  and  C15_17
REMARK   14  A    between atoms: C14_15  and  C16_18
REMARK   15  A    between atoms: C16_18  and  C17_19
REMARK   16  A    between atoms: C17_19  and  C18_20
REMARK   17  A    between atoms: C18_20  and  C19_21
REMARK   18  A    between atoms: C19_21  and  C20_22
REMARK   19  A    between atoms: C19_21  and  C21_23
REMARK                            x       y       z     vdW  Elec       q    Type
REMARK                         _______ _______ _______ _____ _____    ______ ____
ROOT
ATOM      9  C   UNL     1      49.656  20.861  19.058  0.00  0.00    +0.005 C 
ENDROOT
BRANCH   9   8
ATOM      8  C   UNL     1      49.623  20.342  20.497  0.00  0.00    -0.024 C 
ATOM     20  C   UNL     1      48.576  21.121  21.296  0.00  0.00    +0.012 C 
BRANCH   8   7
ATOM      7  C   UNL     1      49.260  18.856  20.495  0.00  0.00    +0.006 C 
BRANCH   7   6
ATOM      6  C   UNL     1      48.709  18.467  19.121  0.00  0.00    +0.012 C 
BRANCH   6   5
ATOM      5  C   UNL     1      47.394  17.706  19.296  0.00  0.00    +0.050 C 
BRANCH   5   4
ATOM      3  C   UNL     1      45.711  18.863  17.958  0.00  0.00    -0.058 C 
ATOM      4  C   UNL     1      46.553  17.864  18.055  0.00  0.00    -0.129 C 
ATOM     21  C   UNL     1      46.678  16.873  16.928  0.00  0.00    +0.070 C 
BRANCH   3   2
ATOM      1  C   UNL     1      45.886  21.198  18.779  0.00  0.00    +0.013 C 
ATOM      2  C   UNL     1      45.476  19.768  19.141  0.00  0.00    +0.040 C 
ENDBRANCH   3   2
ENDBRANCH   5   4
ENDBRANCH   6   5
ENDBRANCH   7   6
ENDBRANCH   8   7
ENDBRANCH   9   8
BRANCH   9  10
ATOM     10  C   UNL     1      51.099  21.177  18.663  0.00  0.00    +0.003 C 
BRANCH  10  11
ATOM     11  C   UNL     1      51.261  21.017  17.149  0.00  0.00    +0.005 C 
BRANCH  11  12
ATOM     12  C   UNL     1      52.350  19.982  16.860  0.00  0.00    -0.024 C 
ATOM     19  C   UNL     1      51.991  19.202  15.594  0.00  0.00    +0.012 C 
BRANCH  12  13
ATOM     13  C   UNL     1      52.458  19.015  18.041  0.00  0.00    +0.005 C 
BRANCH  13  14
ATOM     14  C   UNL     1      51.896  17.650  17.637  0.00  0.00    +0.003 C 
BRANCH  14  15
ATOM     15  C   UNL     1      51.940  16.704  18.838  0.00  0.00    +0.005 C 
BRANCH  15  16
ATOM     16  C   UNL     1      51.115  15.452  18.531  0.00  0.00    -0.031 C 
ATOM     17  C   UNL     1      50.254  15.700  17.290  0.00  0.00    +0.012 C 
ATOM     18  C   UNL     1      50.212  15.131  19.723  0.00  0.00    +0.012 C 
ENDBRANCH  15  16
ENDBRANCH  14  15
ENDBRANCH  13  14
ENDBRANCH  12  13
ENDBRANCH  11  12
ENDBRANCH  10  11
ENDBRANCH   9  10
TORSDOF 13
ENDMDL
