MODEL 1
REMARK VINA RESULT:      -5.7      0.000      0.000
REMARK  Name = ZINC95485923
REMARK  8 active torsions:
REMARK  status: ('A' for Active; 'I' for Inactive)
REMARK    1  A    between atoms: C1_1  and  O1_2
REMARK    2  A    between atoms: O1_2  and  C2_3
REMARK    3  A    between atoms: C3_4  and  O7_29
REMARK    4  A    between atoms: C9_11  and  C11_14
REMARK    5  A    between atoms: C12_16  and  O6_27
REMARK    6  A    between atoms: C14_20  and  O5_25
REMARK    7  A    between atoms: O5_25  and  C17_26
REMARK    8  A    between atoms: O6_27  and  C18_28
REMARK                            x       y       z     vdW  Elec       q    Type
REMARK                         _______ _______ _______ _____ _____    ______ ____
ROOT
ATOM      3  C   UNL     1      44.576  21.176  19.551  0.00  0.00    +0.042 A 
ATOM      4  C   UNL     1      44.083  22.376  20.050  0.00  0.00    +0.122 A 
ATOM      7  C   UNL     1      44.908  23.198  20.801  0.00  0.00    -0.021 A 
ATOM      8  C   UNL     1      46.212  22.825  21.054  0.00  0.00    +0.067 A 
ATOM      9  C   UNL     1      46.709  21.629  20.558  0.00  0.00    -0.157 A 
ATOM     10  C   UNL     1      48.139  21.257  20.862  0.00  0.00    +0.106 C 
ATOM     11  C   UNL     1      48.603  20.164  19.902  0.00  0.00    -0.024 C 
ATOM     24  C   UNL     1      47.534  19.066  19.856  0.00  0.00    +0.251 C 
ATOM     25  O   UNL     1      46.341  19.622  19.301  0.00  0.00    -0.294 OA
ATOM     26  C   UNL     1      45.893  20.800  19.809  0.00  0.00    +0.129 A 
ENDROOT
BRANCH  11  12
ATOM     12  C   UNL     1      49.928  19.574  20.390  0.00  0.00    +0.001 C 
ATOM     13  C   UNL     1      50.239  18.291  19.607  0.00  0.00    +0.156 C 
ATOM     16  C   UNL     1      50.591  18.667  18.186  0.00  0.00    +0.314 C 
ATOM     17  C   UNL     1      51.707  19.659  17.949  0.00  0.00    +0.163 C 
ATOM     20  C   UNL     1      51.396  20.942  18.731  0.00  0.00    +0.068 C 
ATOM     21  O   UNL     1      49.991  18.184  17.256  0.00  0.00    -0.406 OA
ATOM     22  C   UNL     1      51.043  20.568  20.157  0.00  0.00    +0.376 C 
ATOM     23  O   UNL     1      51.641  21.050  21.088  0.00  0.00    -0.421 OA
BRANCH  13  14
ATOM     14  O   UNL     1      51.342  17.614  20.215  0.00  0.00    -0.363 OA
ATOM     15  C   UNL     1      51.446  16.235  19.855  0.00  0.00    +0.222 C 
ENDBRANCH  13  14
BRANCH  17  18
ATOM     18  O   UNL     1      51.798  19.954  16.554  0.00  0.00    -0.360 OA
ATOM     19  C   UNL     1      51.500  21.313  16.226  0.00  0.00    +0.217 C 
ENDBRANCH  17  18
ENDBRANCH  11  12
BRANCH   3   2
ATOM      1  C   UNL     1      42.944  19.445  19.532  0.00  0.00    +0.219 C 
ATOM      2  O   UNL     1      43.769  20.365  18.814  0.00  0.00    -0.315 OA
ENDBRANCH   3   2
BRANCH   4   5
ATOM      5  O   UNL     1      42.798  22.741  19.801  0.00  0.00    -0.482 OA
ATOM      6  H   UNL     1      42.595  23.655  20.039  0.00  0.00    +0.390 HD
ENDBRANCH   4   5
TORSDOF 5
ENDMDL
MODEL 2
REMARK VINA RESULT:      -5.6      2.246      6.862
REMARK  Name = ZINC95485923
REMARK  8 active torsions:
REMARK  status: ('A' for Active; 'I' for Inactive)
REMARK    1  A    between atoms: C1_1  and  O1_2
REMARK    2  A    between atoms: O1_2  and  C2_3
REMARK    3  A    between atoms: C3_4  and  O7_29
REMARK    4  A    between atoms: C9_11  and  C11_14
REMARK    5  A    between atoms: C12_16  and  O6_27
REMARK    6  A    between atoms: C14_20  and  O5_25
REMARK    7  A    between atoms: O5_25  and  C17_26
REMARK    8  A    between atoms: O6_27  and  C18_28
REMARK                            x       y       z     vdW  Elec       q    Type
REMARK                         _______ _______ _______ _____ _____    ______ ____
ROOT
ATOM      3  C   UNL     1      51.550  21.248  20.569  0.00  0.00    +0.042 A 
ATOM      4  C   UNL     1      52.296  21.449  19.415  0.00  0.00    +0.122 A 
ATOM      7  C   UNL     1      51.740  21.164  18.178  0.00  0.00    -0.021 A 
ATOM      8  C   UNL     1      50.450  20.679  18.095  0.00  0.00    +0.067 A 
ATOM      9  C   UNL     1      49.701  20.477  19.243  0.00  0.00    -0.157 A 
ATOM     10  C   UNL     1      48.297  19.942  19.108  0.00  0.00    +0.106 C 
ATOM     11  C   UNL     1      47.522  20.194  20.399  0.00  0.00    -0.024 C 
ATOM     24  C   UNL     1      48.385  19.747  21.584  0.00  0.00    +0.251 C 
ATOM     25  O   UNL     1      49.547  20.577  21.633  0.00  0.00    -0.294 OA
ATOM     26  C   UNL     1      50.249  20.757  20.483  0.00  0.00    +0.129 A 
ENDROOT
BRANCH  11  12
ATOM     12  C   UNL     1      46.215  19.397  20.384  0.00  0.00    +0.001 C 
ATOM     13  C   UNL     1      45.382  19.749  21.623  0.00  0.00    +0.156 C 
ATOM     16  C   UNL     1      44.866  21.162  21.470  0.00  0.00    +0.314 C 
ATOM     17  C   UNL     1      44.069  21.518  20.237  0.00  0.00    +0.163 C 
ATOM     20  C   UNL     1      44.901  21.165  18.997  0.00  0.00    +0.068 C 
ATOM     21  O   UNL     1      45.087  21.992  22.320  0.00  0.00    -0.406 OA
ATOM     22  C   UNL     1      45.420  19.750  19.147  0.00  0.00    +0.376 C 
ATOM     23  O   UNL     1      45.201  18.918  18.299  0.00  0.00    -0.421 OA
BRANCH  13  14
ATOM     14  O   UNL     1      44.283  18.843  21.736  0.00  0.00    -0.363 OA
ATOM     15  C   UNL     1      44.670  17.482  21.934  0.00  0.00    +0.222 C 
ENDBRANCH  13  14
BRANCH  17  18
ATOM     18  O   UNL     1      43.777  22.917  20.241  0.00  0.00    -0.360 OA
ATOM     19  C   UNL     1      44.613  23.688  19.376  0.00  0.00    +0.217 C 
ENDBRANCH  17  18
ENDBRANCH  11  12
BRANCH   3   2
ATOM      1  C   UNL     1      52.766  20.457  22.455  0.00  0.00    +0.219 C 
ATOM      2  O   UNL     1      52.093  21.525  21.786  0.00  0.00    -0.315 OA
ENDBRANCH   3   2
BRANCH   4   5
ATOM      5  O   UNL     1      53.567  21.925  19.499  0.00  0.00    -0.482 OA
ATOM      6  H   UNL     1      54.227  21.249  19.704  0.00  0.00    +0.390 HD
ENDBRANCH   4   5
TORSDOF 5
ENDMDL
MODEL 3
REMARK VINA RESULT:      -5.5      3.795      7.868
REMARK  Name = ZINC95485923
REMARK  8 active torsions:
REMARK  status: ('A' for Active; 'I' for Inactive)
REMARK    1  A    between atoms: C1_1  and  O1_2
REMARK    2  A    between atoms: O1_2  and  C2_3
REMARK    3  A    between atoms: C3_4  and  O7_29
REMARK    4  A    between atoms: C9_11  and  C11_14
REMARK    5  A    between atoms: C12_16  and  O6_27
REMARK    6  A    between atoms: C14_20  and  O5_25
REMARK    7  A    between atoms: O5_25  and  C17_26
REMARK    8  A    between atoms: O6_27  and  C18_28
REMARK                            x       y       z     vdW  Elec       q    Type
REMARK                         _______ _______ _______ _____ _____    ______ ____
ROOT
ATOM      3  C   UNL     1      47.079  14.715  17.622  0.00  0.00    +0.042 A 
ATOM      4  C   UNL     1      46.747  13.366  17.627  0.00  0.00    +0.122 A 
ATOM      7  C   UNL     1      45.814  12.891  18.535  0.00  0.00    -0.021 A 
ATOM      8  C   UNL     1      45.220  13.756  19.432  0.00  0.00    +0.067 A 
ATOM      9  C   UNL     1      45.547  15.103  19.432  0.00  0.00    -0.157 A 
ATOM     10  C   UNL     1      44.878  16.012  20.432  0.00  0.00    +0.106 C 
ATOM     11  C   UNL     1      45.040  17.466  19.997  0.00  0.00    -0.024 C 
ATOM     24  C   UNL     1      46.509  17.706  19.627  0.00  0.00    +0.251 C 
ATOM     25  O   UNL     1      46.826  16.900  18.493  0.00  0.00    -0.294 OA
ATOM     26  C   UNL     1      46.479  15.585  18.530  0.00  0.00    +0.129 A 
ENDROOT
BRANCH  11  12
ATOM     12  C   UNL     1      44.637  18.399  21.142  0.00  0.00    +0.001 C 
ATOM     13  C   UNL     1      45.124  19.822  20.842  0.00  0.00    +0.156 C 
ATOM     16  C   UNL     1      44.302  20.383  19.704  0.00  0.00    +0.314 C 
ATOM     17  C   UNL     1      42.796  20.406  19.834  0.00  0.00    +0.163 C 
ATOM     20  C   UNL     1      42.309  18.982  20.134  0.00  0.00    +0.068 C 
ATOM     21  O   UNL     1      44.839  20.806  18.708  0.00  0.00    -0.406 OA
ATOM     22  C   UNL     1      43.131  18.418  21.275  0.00  0.00    +0.376 C 
ATOM     23  O   UNL     1      42.597  17.994  22.271  0.00  0.00    -0.421 OA
BRANCH  13  14
ATOM     14  O   UNL     1      44.962  20.639  22.003  0.00  0.00    -0.363 OA
ATOM     15  C   UNL     1      45.629  21.901  21.924  0.00  0.00    +0.222 C 
ENDBRANCH  13  14
BRANCH  17  18
ATOM     18  O   UNL     1      42.215  20.868  18.613  0.00  0.00    -0.360 OA
ATOM     19  C   UNL     1      40.954  21.518  18.778  0.00  0.00    +0.217 C 
ENDBRANCH  17  18
ENDBRANCH  11  12
BRANCH   3   2
ATOM      1  C   UNL     1      49.364  15.170  17.142  0.00  0.00    +0.219 C 
ATOM      2  O   UNL     1      47.995  15.185  16.733  0.00  0.00    -0.315 OA
ENDBRANCH   3   2
BRANCH   4   5
ATOM      5  O   UNL     1      47.334  12.516  16.744  0.00  0.00    -0.482 OA
ATOM      6  H   UNL     1      46.735  12.179  16.064  0.00  0.00    +0.390 HD
ENDBRANCH   4   5
TORSDOF 5
ENDMDL
MODEL 4
REMARK VINA RESULT:      -5.2      2.544      3.949
REMARK  Name = ZINC95485923
REMARK  8 active torsions:
REMARK  status: ('A' for Active; 'I' for Inactive)
REMARK    1  A    between atoms: C1_1  and  O1_2
REMARK    2  A    between atoms: O1_2  and  C2_3
REMARK    3  A    between atoms: C3_4  and  O7_29
REMARK    4  A    between atoms: C9_11  and  C11_14
REMARK    5  A    between atoms: C12_16  and  O6_27
REMARK    6  A    between atoms: C14_20  and  O5_25
REMARK    7  A    between atoms: O5_25  and  C17_26
REMARK    8  A    between atoms: O6_27  and  C18_28
REMARK                            x       y       z     vdW  Elec       q    Type
REMARK                         _______ _______ _______ _____ _____    ______ ____
ROOT
ATOM      3  C   UNL     1      42.875  19.306  20.300  0.00  0.00    +0.042 A 
ATOM      4  C   UNL     1      42.128  18.764  21.339  0.00  0.00    +0.122 A 
ATOM      7  C   UNL     1      42.604  17.657  22.024  0.00  0.00    -0.021 A 
ATOM      8  C   UNL     1      43.814  17.094  21.671  0.00  0.00    +0.067 A 
ATOM      9  C   UNL     1      44.563  17.631  20.635  0.00  0.00    -0.157 A 
ATOM     10  C   UNL     1      45.878  16.982  20.280  0.00  0.00    +0.106 C 
ATOM     11  C   UNL     1      46.718  17.943  19.442  0.00  0.00    -0.024 C 
ATOM     24  C   UNL     1      45.837  18.518  18.326  0.00  0.00    +0.251 C 
ATOM     25  O   UNL     1      44.800  19.295  18.926  0.00  0.00    -0.294 OA
ATOM     26  C   UNL     1      44.095  18.735  19.945  0.00  0.00    +0.129 A 
ENDROOT
BRANCH  11  12
ATOM     12  C   UNL     1      47.905  17.196  18.829  0.00  0.00    +0.001 C 
ATOM     13  C   UNL     1      48.797  18.183  18.067  0.00  0.00    +0.156 C 
ATOM     16  C   UNL     1      49.497  19.072  19.069  0.00  0.00    +0.314 C 
ATOM     17  C   UNL     1      50.315  18.432  20.167  0.00  0.00    +0.163 C 
ATOM     20  C   UNL     1      49.422  17.443  20.929  0.00  0.00    +0.068 C 
ATOM     21  O   UNL     1      49.404  20.274  18.995  0.00  0.00    -0.406 OA
ATOM     22  C   UNL     1      48.720  16.550  19.926  0.00  0.00    +0.376 C 
ATOM     23  O   UNL     1      48.810  15.348  19.999  0.00  0.00    -0.421 OA
BRANCH  13  14
ATOM     14  O   UNL     1      49.766  17.463  17.301  0.00  0.00    -0.363 OA
ATOM     15  C   UNL     1      50.677  18.298  16.584  0.00  0.00    +0.222 C 
ENDBRANCH  13  14
BRANCH  17  18
ATOM     18  O   UNL     1      50.793  19.439  21.060  0.00  0.00    -0.360 OA
ATOM     19  C   UNL     1      52.216  19.559  21.092  0.00  0.00    +0.217 C 
ENDBRANCH  17  18
ENDBRANCH  11  12
BRANCH   3   2
ATOM      1  C   UNL     1      41.568  20.145  18.498  0.00  0.00    +0.219 C 
ATOM      2  O   UNL     1      42.410  20.393  19.625  0.00  0.00    -0.315 OA
ENDBRANCH   3   2
BRANCH   4   5
ATOM      5  O   UNL     1      40.936  19.319  21.684  0.00  0.00    -0.482 OA
ATOM      6  H   UNL     1      40.264  19.269  20.991  0.00  0.00    +0.390 HD
ENDBRANCH   4   5
TORSDOF 5
ENDMDL
MODEL 5
REMARK VINA RESULT:      -5.1      2.292      3.278
REMARK  Name = ZINC95485923
REMARK  8 active torsions:
REMARK  status: ('A' for Active; 'I' for Inactive)
REMARK    1  A    between atoms: C1_1  and  O1_2
REMARK    2  A    between atoms: O1_2  and  C2_3
REMARK    3  A    between atoms: C3_4  and  O7_29
REMARK    4  A    between atoms: C9_11  and  C11_14
REMARK    5  A    between atoms: C12_16  and  O6_27
REMARK    6  A    between atoms: C14_20  and  O5_25
REMARK    7  A    between atoms: O5_25  and  C17_26
REMARK    8  A    between atoms: O6_27  and  C18_28
REMARK                            x       y       z     vdW  Elec       q    Type
REMARK                         _______ _______ _______ _____ _____    ______ ____
ROOT
ATOM      3  C   UNL     1      41.684  20.702  19.073  0.00  0.00    +0.042 A 
ATOM      4  C   UNL     1      41.328  22.010  18.770  0.00  0.00    +0.122 A 
ATOM      7  C   UNL     1      42.236  23.037  18.979  0.00  0.00    -0.021 A 
ATOM      8  C   UNL     1      43.488  22.758  19.490  0.00  0.00    +0.067 A 
ATOM      9  C   UNL     1      43.848  21.455  19.794  0.00  0.00    -0.157 A 
ATOM     10  C   UNL     1      45.224  21.195  20.354  0.00  0.00    +0.106 C 
ATOM     11  C   UNL     1      45.568  19.714  20.216  0.00  0.00    -0.024 C 
ATOM     24  C   UNL     1      44.381  18.887  20.724  0.00  0.00    +0.251 C 
ATOM     25  O   UNL     1      43.262  19.131  19.871  0.00  0.00    -0.294 OA
ATOM     26  C   UNL     1      42.948  20.424  19.590  0.00  0.00    +0.129 A 
ENDROOT
BRANCH  11  12
ATOM     12  C   UNL     1      46.814  19.390  21.043  0.00  0.00    +0.001 C 
ATOM     13  C   UNL     1      47.119  17.890  20.949  0.00  0.00    +0.156 C 
ATOM     16  C   UNL     1      47.607  17.584  19.552  0.00  0.00    +0.314 C 
ATOM     17  C   UNL     1      48.790  18.351  19.008  0.00  0.00    +0.163 C 
ATOM     20  C   UNL     1      48.486  19.852  19.102  0.00  0.00    +0.068 C 
ATOM     21  O   UNL     1      47.061  16.741  18.881  0.00  0.00    -0.406 OA
ATOM     22  C   UNL     1      47.997  20.161  20.502  0.00  0.00    +0.376 C 
ATOM     23  O   UNL     1      48.540  21.004  21.175  0.00  0.00    -0.421 OA
BRANCH  13  14
ATOM     14  O   UNL     1      48.129  17.545  21.900  0.00  0.00    -0.363 OA
ATOM     15  C   UNL     1      48.162  16.156  22.234  0.00  0.00    +0.222 C 
ENDBRANCH  13  14
BRANCH  17  18
ATOM     18  O   UNL     1      49.013  17.987  17.644  0.00  0.00    -0.360 OA
ATOM     19  C   UNL     1      50.390  17.809  17.307  0.00  0.00    +0.217 C 
ENDBRANCH  17  18
ENDBRANCH  11  12
BRANCH   3   2
ATOM      1  C   UNL     1      40.595  19.265  17.520  0.00  0.00    +0.219 C 
ATOM      2  O   UNL     1      40.795  19.692  18.870  0.00  0.00    -0.315 OA
ENDBRANCH   3   2
BRANCH   4   5
ATOM      5  O   UNL     1      40.094  22.282  18.269  0.00  0.00    -0.482 OA
ATOM      6  H   UNL     1      39.683  21.538  17.809  0.00  0.00    +0.390 HD
ENDBRANCH   4   5
TORSDOF 5
ENDMDL
MODEL 6
REMARK VINA RESULT:      -5.1      4.443      5.842
REMARK  Name = ZINC95485923
REMARK  8 active torsions:
REMARK  status: ('A' for Active; 'I' for Inactive)
REMARK    1  A    between atoms: C1_1  and  O1_2
REMARK    2  A    between atoms: O1_2  and  C2_3
REMARK    3  A    between atoms: C3_4  and  O7_29
REMARK    4  A    between atoms: C9_11  and  C11_14
REMARK    5  A    between atoms: C12_16  and  O6_27
REMARK    6  A    between atoms: C14_20  and  O5_25
REMARK    7  A    between atoms: O5_25  and  C17_26
REMARK    8  A    between atoms: O6_27  and  C18_28
REMARK                            x       y       z     vdW  Elec       q    Type
REMARK                         _______ _______ _______ _____ _____    ______ ____
ROOT
ATOM      3  C   UNL     1      43.566  19.217  20.047  0.00  0.00    +0.042 A 
ATOM      4  C   UNL     1      43.724  20.523  19.598  0.00  0.00    +0.122 A 
ATOM      7  C   UNL     1      44.865  20.874  18.894  0.00  0.00    -0.021 A 
ATOM      8  C   UNL     1      45.840  19.930  18.643  0.00  0.00    +0.067 A 
ATOM      9  C   UNL     1      45.687  18.626  19.089  0.00  0.00    -0.157 A 
ATOM     10  C   UNL     1      46.779  17.627  18.797  0.00  0.00    +0.106 C 
ATOM     11  C   UNL     1      46.244  16.209  18.981  0.00  0.00    -0.024 C 
ATOM     24  C   UNL     1      45.497  16.137  20.318  0.00  0.00    +0.251 C 
ATOM     25  O   UNL     1      44.361  16.999  20.246  0.00  0.00    -0.294 OA
ATOM     26  C   UNL     1      44.552  18.267  19.795  0.00  0.00    +0.129 A 
ENDROOT
BRANCH  11  12
ATOM     12  C   UNL     1      47.406  15.212  18.985  0.00  0.00    +0.001 C 
ATOM     13  C   UNL     1      46.966  13.911  19.668  0.00  0.00    +0.156 C 
ATOM     16  C   UNL     1      45.978  13.206  18.768  0.00  0.00    +0.314 C 
ATOM     17  C   UNL     1      46.381  12.891  17.346  0.00  0.00    +0.163 C 
ATOM     20  C   UNL     1      46.822  14.192  16.663  0.00  0.00    +0.068 C 
ATOM     21  O   UNL     1      44.884  12.898  19.178  0.00  0.00    -0.406 OA
ATOM     22  C   UNL     1      47.813  14.902  17.562  0.00  0.00    +0.376 C 
ATOM     23  O   UNL     1      48.907  15.211  17.155  0.00  0.00    -0.421 OA
BRANCH  13  14
ATOM     14  O   UNL     1      48.104  13.075  19.885  0.00  0.00    -0.363 OA
ATOM     15  C   UNL     1      48.180  12.528  21.203  0.00  0.00    +0.222 C 
ENDBRANCH  13  14
BRANCH  17  18
ATOM     18  O   UNL     1      45.271  12.329  16.644  0.00  0.00    -0.360 OA
ATOM     19  C   UNL     1      45.520  11.028  16.107  0.00  0.00    +0.217 C 
ENDBRANCH  17  18
ENDBRANCH  11  12
BRANCH   3   2
ATOM      1  C   UNL     1      42.519  18.938  22.165  0.00  0.00    +0.219 C 
ATOM      2  O   UNL     1      42.447  18.869  20.740  0.00  0.00    -0.315 OA
ENDBRANCH   3   2
BRANCH   4   5
ATOM      5  O   UNL     1      42.763  21.451  19.847  0.00  0.00    -0.482 OA
ATOM      6  H   UNL     1      41.934  21.080  20.180  0.00  0.00    +0.390 HD
ENDBRANCH   4   5
TORSDOF 5
ENDMDL
MODEL 7
REMARK VINA RESULT:      -5.1      3.378      4.669
REMARK  Name = ZINC95485923
REMARK  8 active torsions:
REMARK  status: ('A' for Active; 'I' for Inactive)
REMARK    1  A    between atoms: C1_1  and  O1_2
REMARK    2  A    between atoms: O1_2  and  C2_3
REMARK    3  A    between atoms: C3_4  and  O7_29
REMARK    4  A    between atoms: C9_11  and  C11_14
REMARK    5  A    between atoms: C12_16  and  O6_27
REMARK    6  A    between atoms: C14_20  and  O5_25
REMARK    7  A    between atoms: O5_25  and  C17_26
REMARK    8  A    between atoms: O6_27  and  C18_28
REMARK                            x       y       z     vdW  Elec       q    Type
REMARK                         _______ _______ _______ _____ _____    ______ ____
ROOT
ATOM      3  C   UNL     1      43.585  18.900  20.325  0.00  0.00    +0.042 A 
ATOM      4  C   UNL     1      42.850  18.696  21.486  0.00  0.00    +0.122 A 
ATOM      7  C   UNL     1      43.037  17.536  22.222  0.00  0.00    -0.021 A 
ATOM      8  C   UNL     1      43.947  16.589  21.800  0.00  0.00    +0.067 A 
ATOM      9  C   UNL     1      44.683  16.788  20.643  0.00  0.00    -0.157 A 
ATOM     10  C   UNL     1      45.664  15.725  20.216  0.00  0.00    +0.106 C 
ATOM     11  C   UNL     1      46.647  16.306  19.202  0.00  0.00    -0.024 C 
ATOM     24  C   UNL     1      45.855  17.070  18.135  0.00  0.00    +0.251 C 
ATOM     25  O   UNL     1      45.207  18.178  18.761  0.00  0.00    -0.294 OA
ATOM     26  C   UNL     1      44.502  17.941  19.900  0.00  0.00    +0.129 A 
ENDROOT
BRANCH  11  12
ATOM     12  C   UNL     1      47.442  15.176  18.543  0.00  0.00    +0.001 C 
ATOM     13  C   UNL     1      48.133  15.702  17.279  0.00  0.00    +0.156 C 
ATOM     16  C   UNL     1      49.244  16.641  17.692  0.00  0.00    +0.314 C 
ATOM     17  C   UNL     1      50.303  16.142  18.648  0.00  0.00    +0.163 C 
ATOM     20  C   UNL     1      49.612  15.615  19.913  0.00  0.00    +0.068 C 
ATOM     21  O   UNL     1      49.285  17.770  17.266  0.00  0.00    -0.406 OA
ATOM     22  C   UNL     1      48.499  14.674  19.502  0.00  0.00    +0.376 C 
ATOM     23  O   UNL     1      48.455  13.544  19.927  0.00  0.00    -0.421 OA
BRANCH  13  14
ATOM     14  O   UNL     1      48.677  14.607  16.538  0.00  0.00    -0.363 OA
ATOM     15  C   UNL     1      47.700  13.660  16.100  0.00  0.00    +0.222 C 
ENDBRANCH  13  14
BRANCH  17  18
ATOM     18  O   UNL     1      51.185  17.213  18.989  0.00  0.00    -0.360 OA
ATOM     19  C   UNL     1      52.563  16.936  18.731  0.00  0.00    +0.217 C 
ENDBRANCH  17  18
ENDBRANCH  11  12
BRANCH   3   2
ATOM      1  C   UNL     1      42.324  20.044  18.663  0.00  0.00    +0.219 C 
ATOM      2  O   UNL     1      43.404  20.037  19.598  0.00  0.00    -0.315 OA
ENDBRANCH   3   2
BRANCH   4   5
ATOM      5  O   UNL     1      41.953  19.630  21.898  0.00  0.00    -0.482 OA
ATOM      6  H   UNL     1      41.175  19.706  21.329  0.00  0.00    +0.390 HD
ENDBRANCH   4   5
TORSDOF 5
ENDMDL
MODEL 8
REMARK VINA RESULT:      -5.1      3.093      4.141
REMARK  Name = ZINC95485923
REMARK  8 active torsions:
REMARK  status: ('A' for Active; 'I' for Inactive)
REMARK    1  A    between atoms: C1_1  and  O1_2
REMARK    2  A    between atoms: O1_2  and  C2_3
REMARK    3  A    between atoms: C3_4  and  O7_29
REMARK    4  A    between atoms: C9_11  and  C11_14
REMARK    5  A    between atoms: C12_16  and  O6_27
REMARK    6  A    between atoms: C14_20  and  O5_25
REMARK    7  A    between atoms: O5_25  and  C17_26
REMARK    8  A    between atoms: O6_27  and  C18_28
REMARK                            x       y       z     vdW  Elec       q    Type
REMARK                         _______ _______ _______ _____ _____    ______ ____
ROOT
ATOM      3  C   UNL     1      42.854  21.400  19.265  0.00  0.00    +0.042 A 
ATOM      4  C   UNL     1      43.175  22.739  19.451  0.00  0.00    +0.122 A 
ATOM      7  C   UNL     1      44.285  23.081  20.207  0.00  0.00    -0.021 A 
ATOM      8  C   UNL     1      45.066  22.094  20.774  0.00  0.00    +0.067 A 
ATOM      9  C   UNL     1      44.750  20.757  20.591  0.00  0.00    -0.157 A 
ATOM     10  C   UNL     1      45.627  19.711  21.233  0.00  0.00    +0.106 C 
ATOM     11  C   UNL     1      45.376  18.354  20.578  0.00  0.00    -0.024 C 
ATOM     24  C   UNL     1      43.863  18.121  20.499  0.00  0.00    +0.251 C 
ATOM     25  O   UNL     1      43.299  19.106  19.633  0.00  0.00    -0.294 OA
ATOM     26  C   UNL     1      43.642  20.406  19.840  0.00  0.00    +0.129 A 
ENDROOT
BRANCH  11  12
ATOM     12  C   UNL     1      46.026  17.247  21.412  0.00  0.00    +0.001 C 
ATOM     13  C   UNL     1      45.687  15.880  20.805  0.00  0.00    +0.156 C 
ATOM     16  C   UNL     1      46.430  15.736  19.497  0.00  0.00    +0.314 C 
ATOM     17  C   UNL     1      47.931  15.908  19.487  0.00  0.00    +0.163 C 
ATOM     20  C   UNL     1      48.271  17.276  20.094  0.00  0.00    +0.068 C 
ATOM     21  O   UNL     1      45.834  15.487  18.476  0.00  0.00    -0.406 OA
ATOM     22  C   UNL     1      47.528  17.423  21.406  0.00  0.00    +0.376 C 
ATOM     23  O   UNL     1      48.121  17.673  22.428  0.00  0.00    -0.421 OA
BRANCH  13  14
ATOM     14  O   UNL     1      46.088  14.843  21.705  0.00  0.00    -0.363 OA
ATOM     15  C   UNL     1      45.401  13.606  21.508  0.00  0.00    +0.222 C 
ENDBRANCH  13  14
BRANCH  17  18
ATOM     18  O   UNL     1      48.414  15.842  18.144  0.00  0.00    -0.360 OA
ATOM     19  C   UNL     1      48.873  17.093  17.629  0.00  0.00    +0.217 C 
ENDBRANCH  17  18
ENDBRANCH  11  12
BRANCH   3   2
ATOM      1  C   UNL     1      40.522  20.927  19.220  0.00  0.00    +0.219 C 
ATOM      2  O   UNL     1      41.763  21.060  18.524  0.00  0.00    -0.315 OA
ENDBRANCH   3   2
BRANCH   4   5
ATOM      5  O   UNL     1      42.403  23.709  18.892  0.00  0.00    -0.482 OA
ATOM      6  H   UNL     1      41.960  23.438  18.077  0.00  0.00    +0.390 HD
ENDBRANCH   4   5
TORSDOF 5
ENDMDL
MODEL 9
REMARK VINA RESULT:      -5.0      3.726      6.883
REMARK  Name = ZINC95485923
REMARK  8 active torsions:
REMARK  status: ('A' for Active; 'I' for Inactive)
REMARK    1  A    between atoms: C1_1  and  O1_2
REMARK    2  A    between atoms: O1_2  and  C2_3
REMARK    3  A    between atoms: C3_4  and  O7_29
REMARK    4  A    between atoms: C9_11  and  C11_14
REMARK    5  A    between atoms: C12_16  and  O6_27
REMARK    6  A    between atoms: C14_20  and  O5_25
REMARK    7  A    between atoms: O5_25  and  C17_26
REMARK    8  A    between atoms: O6_27  and  C18_28
REMARK                            x       y       z     vdW  Elec       q    Type
REMARK                         _______ _______ _______ _____ _____    ______ ____
ROOT
ATOM      3  C   UNL     1      51.009  19.362  17.838  0.00  0.00    +0.042 A 
ATOM      4  C   UNL     1      50.991  20.606  18.458  0.00  0.00    +0.122 A 
ATOM      7  C   UNL     1      49.888  20.985  19.208  0.00  0.00    -0.021 A 
ATOM      8  C   UNL     1      48.812  20.130  19.334  0.00  0.00    +0.067 A 
ATOM      9  C   UNL     1      48.825  18.888  18.718  0.00  0.00    -0.157 A 
ATOM     10  C   UNL     1      47.626  17.987  18.879  0.00  0.00    +0.106 C 
ATOM     11  C   UNL     1      48.002  16.555  18.505  0.00  0.00    -0.024 C 
ATOM     24  C   UNL     1      48.751  16.579  17.167  0.00  0.00    +0.251 C 
ATOM     25  O   UNL     1      49.975  17.292  17.349  0.00  0.00    -0.294 OA
ATOM     26  C   UNL     1      49.920  18.502  17.966  0.00  0.00    +0.129 A 
ENDROOT
BRANCH  11  12
ATOM     12  C   UNL     1      46.737  15.704  18.373  0.00  0.00    +0.001 C 
ATOM     13  C   UNL     1      47.114  14.289  17.917  0.00  0.00    +0.156 C 
ATOM     16  C   UNL     1      47.822  13.589  19.054  0.00  0.00    +0.314 C 
ATOM     17  C   UNL     1      47.131  13.494  20.396  0.00  0.00    +0.163 C 
ATOM     20  C   UNL     1      46.753  14.910  20.852  0.00  0.00    +0.068 C 
ATOM     21  O   UNL     1      48.920  13.112  18.895  0.00  0.00    -0.406 OA
ATOM     22  C   UNL     1      46.043  15.614  19.714  0.00  0.00    +0.376 C 
ATOM     23  O   UNL     1      44.945  16.092  19.870  0.00  0.00    -0.421 OA
BRANCH  13  14
ATOM     14  O   UNL     1      45.932  13.566  17.566  0.00  0.00    -0.363 OA
ATOM     15  C   UNL     1      46.184  12.329  16.897  0.00  0.00    +0.222 C 
ENDBRANCH  13  14
BRANCH  17  18
ATOM     18  O   UNL     1      48.012  12.898  21.349  0.00  0.00    -0.360 OA
ATOM     19  C   UNL     1      48.468  13.798  22.361  0.00  0.00    +0.217 C 
ENDBRANCH  17  18
ENDBRANCH  11  12
BRANCH   3   2
ATOM      1  C   UNL     1      52.095  19.362  15.721  0.00  0.00    +0.219 C 
ATOM      2  O   UNL     1      52.089  18.987  17.100  0.00  0.00    -0.315 OA
ENDBRANCH   3   2
BRANCH   4   5
ATOM      5  O   UNL     1      52.052  21.446  18.330  0.00  0.00    -0.482 OA
ATOM      6  H   UNL     1      52.854  21.137  18.773  0.00  0.00    +0.390 HD
ENDBRANCH   4   5
TORSDOF 5
ENDMDL
