MODEL 1
REMARK VINA RESULT:      -5.9      0.000      0.000
REMARK  Name = ZINC15250727
REMARK  6 active torsions:
REMARK  status: ('A' for Active; 'I' for Inactive)
REMARK    1  A    between atoms: C1_1  and  C2_2
REMARK    2  A    between atoms: C6_6  and  C19_25
REMARK    3  A    between atoms: C6_6  and  C20_26
REMARK    4  A    between atoms: C10_11  and  C18_23
REMARK    5  A    between atoms: C14_16  and  C17_21
REMARK    6  A    between atoms: C16_18  and  O1_20
REMARK                            x       y       z     vdW  Elec       q    Type
REMARK                         _______ _______ _______ _____ _____    ______ ____
ROOT
ATOM      1  C   UNL     1      44.943  18.941  22.504  0.00  0.00    +0.026 C 
ATOM      2  C   UNL     1      44.055  18.447  21.363  0.00  0.00    -0.040 C 
ATOM      3  C   UNL     1      43.186  17.322  21.958  0.00  0.00    +0.022 C 
ATOM      4  C   UNL     1      44.110  16.228  22.505  0.00  0.00    +0.001 C 
ATOM      5  C   UNL     1      44.904  15.611  21.361  0.00  0.00    +0.010 C 
ATOM      6  C   UNL     1      45.665  16.642  20.532  0.00  0.00    -0.048 C 
ATOM      7  C   UNL     1      46.987  16.990  21.214  0.00  0.00    +0.021 C 
ATOM      8  C   UNL     1      46.028  15.937  19.198  0.00  0.00    +0.010 C 
ATOM      9  C   UNL     1      43.139  19.574  20.842  0.00  0.00    +0.045 C 
ATOM     10  C   UNL     1      42.114  18.895  19.923  0.00  0.00    +0.063 C 
ATOM     11  C   UNL     1      40.820  19.685  19.939  0.00  0.00    +0.066 C 
ATOM     12  C   UNL     1      40.751  20.807  19.246  0.00  0.00    -0.230 C 
ATOM     15  C   UNL     1      41.990  21.265  18.495  0.00  0.00    +0.069 C 
ATOM     16  C   UNL     1      43.000  21.742  19.527  0.00  0.00    +0.178 C 
ATOM     19  C   UNL     1      43.900  20.622  20.066  0.00  0.00    -0.099 C 
ATOM     22  C   UNL     1      44.698  20.020  18.925  0.00  0.00    +0.044 C 
ATOM     23  C   UNL     1      45.640  18.931  19.464  0.00  0.00    +0.021 C 
ATOM     24  C   UNL     1      44.834  17.863  20.193  0.00  0.00    +0.003 C 
ENDROOT
BRANCH  12  13
ATOM     13  C   UNL     1      39.521  21.588  19.198  0.00  0.00    +0.476 C 
ATOM     14  O   UNL     1      38.707  21.384  18.322  0.00  0.00    -0.459 OA
ENDBRANCH  12  13
BRANCH  16  17
ATOM     17  O   UNL     1      43.833  22.751  18.951  0.00  0.00    -0.565 OA
ATOM     18  H   UNL     1      44.221  23.356  19.598  0.00  0.00    +0.386 HD
ENDBRANCH  16  17
BRANCH  19  20
ATOM     20  C   UNL     1      44.857  21.399  20.942  0.00  0.00    +0.447 C 
ATOM     21  O   UNL     1      44.447  22.300  21.633  0.00  0.00    -0.444 OA
ENDBRANCH  19  20
TORSDOF 3
ENDMDL
MODEL 2
REMARK VINA RESULT:      -5.5      2.324      3.213
REMARK  Name = ZINC15250727
REMARK  6 active torsions:
REMARK  status: ('A' for Active; 'I' for Inactive)
REMARK    1  A    between atoms: C1_1  and  C2_2
REMARK    2  A    between atoms: C6_6  and  C19_25
REMARK    3  A    between atoms: C6_6  and  C20_26
REMARK    4  A    between atoms: C10_11  and  C18_23
REMARK    5  A    between atoms: C14_16  and  C17_21
REMARK    6  A    between atoms: C16_18  and  O1_20
REMARK                            x       y       z     vdW  Elec       q    Type
REMARK                         _______ _______ _______ _____ _____    ______ ____
ROOT
ATOM      1  C   UNL     1      47.550  20.790  22.131  0.00  0.00    +0.026 C 
ATOM      2  C   UNL     1      46.959  19.761  21.168  0.00  0.00    -0.040 C 
ATOM      3  C   UNL     1      47.138  18.390  21.849  0.00  0.00    +0.022 C 
ATOM      4  C   UNL     1      48.631  18.166  22.112  0.00  0.00    +0.001 C 
ATOM      5  C   UNL     1      49.379  18.098  20.787  0.00  0.00    +0.010 C 
ATOM      6  C   UNL     1      49.131  19.309  19.894  0.00  0.00    -0.048 C 
ATOM      7  C   UNL     1      50.044  20.463  20.308  0.00  0.00    +0.021 C 
ATOM      8  C   UNL     1      49.571  18.887  18.466  0.00  0.00    +0.010 C 
ATOM      9  C   UNL     1      45.457  20.018  20.930  0.00  0.00    +0.045 C 
ATOM     10  C   UNL     1      44.926  18.776  20.200  0.00  0.00    +0.063 C 
ATOM     11  C   UNL     1      43.463  18.577  20.540  0.00  0.00    +0.066 C 
ATOM     12  C   UNL     1      42.563  19.349  19.958  0.00  0.00    -0.230 C 
ATOM     15  C   UNL     1      43.048  20.422  19.000  0.00  0.00    +0.069 C 
ATOM     16  C   UNL     1      43.719  21.506  19.829  0.00  0.00    +0.178 C 
ATOM     19  C   UNL     1      45.209  21.247  20.088  0.00  0.00    -0.099 C 
ATOM     22  C   UNL     1      45.950  21.192  18.766  0.00  0.00    +0.044 C 
ATOM     23  C   UNL     1      47.453  20.983  19.019  0.00  0.00    +0.021 C 
ATOM     24  C   UNL     1      47.670  19.707  19.823  0.00  0.00    +0.003 C 
ENDROOT
BRANCH  12  13
ATOM     13  C   UNL     1      41.139  19.177  20.223  0.00  0.00    +0.476 C 
ATOM     14  O   UNL     1      40.736  19.133  21.367  0.00  0.00    -0.459 OA
ENDBRANCH  12  13
BRANCH  16  17
ATOM     17  O   UNL     1      43.590  22.766  19.166  0.00  0.00    -0.565 OA
ATOM     18  H   UNL     1      44.005  23.502  19.635  0.00  0.00    +0.386 HD
ENDBRANCH  16  17
BRANCH  19  20
ATOM     20  C   UNL     1      45.618  22.518  20.798  0.00  0.00    +0.447 C 
ATOM     21  O   UNL     1      44.894  23.001  21.635  0.00  0.00    -0.444 OA
ENDBRANCH  19  20
TORSDOF 3
ENDMDL
MODEL 3
REMARK VINA RESULT:      -5.5      3.515      5.134
REMARK  Name = ZINC15250727
REMARK  6 active torsions:
REMARK  status: ('A' for Active; 'I' for Inactive)
REMARK    1  A    between atoms: C1_1  and  C2_2
REMARK    2  A    between atoms: C6_6  and  C19_25
REMARK    3  A    between atoms: C6_6  and  C20_26
REMARK    4  A    between atoms: C10_11  and  C18_23
REMARK    5  A    between atoms: C14_16  and  C17_21
REMARK    6  A    between atoms: C16_18  and  O1_20
REMARK                            x       y       z     vdW  Elec       q    Type
REMARK                         _______ _______ _______ _____ _____    ______ ____
ROOT
ATOM      1  C   UNL     1      49.278  17.674  20.010  0.00  0.00    +0.026 C 
ATOM      2  C   UNL     1      48.591  18.626  19.032  0.00  0.00    -0.040 C 
ATOM      3  C   UNL     1      48.504  17.869  17.693  0.00  0.00    +0.022 C 
ATOM      4  C   UNL     1      49.923  17.490  17.253  0.00  0.00    +0.001 C 
ATOM      5  C   UNL     1      50.730  18.755  16.990  0.00  0.00    +0.010 C 
ATOM      6  C   UNL     1      50.736  19.721  18.172  0.00  0.00    -0.048 C 
ATOM      7  C   UNL     1      51.795  19.299  19.190  0.00  0.00    +0.021 C 
ATOM      8  C   UNL     1      51.190  21.092  17.603  0.00  0.00    +0.010 C 
ATOM      9  C   UNL     1      47.166  18.980  19.508  0.00  0.00    +0.045 C 
ATOM     10  C   UNL     1      46.489  19.686  18.325  0.00  0.00    +0.063 C 
ATOM     11  C   UNL     1      44.995  19.440  18.378  0.00  0.00    +0.066 C 
ATOM     12  C   UNL     1      44.268  20.120  19.246  0.00  0.00    -0.230 C 
ATOM     15  C   UNL     1      44.978  21.092  20.172  0.00  0.00    +0.069 C 
ATOM     16  C   UNL     1      45.762  20.270  21.184  0.00  0.00    +0.178 C 
ATOM     19  C   UNL     1      47.171  19.895  20.709  0.00  0.00    -0.099 C 
ATOM     22  C   UNL     1      47.974  21.157  20.462  0.00  0.00    +0.044 C 
ATOM     23  C   UNL     1      49.406  20.790  20.035  0.00  0.00    +0.021 C 
ATOM     24  C   UNL     1      49.364  19.913  18.789  0.00  0.00    +0.003 C 
ENDROOT
BRANCH  12  13
ATOM     13  C   UNL     1      42.822  19.948  19.317  0.00  0.00    +0.476 C 
ATOM     14  O   UNL     1      42.142  20.118  18.326  0.00  0.00    -0.459 OA
ENDBRANCH  12  13
BRANCH  16  17
ATOM     17  O   UNL     1      45.878  21.001  22.408  0.00  0.00    -0.565 OA
ATOM     18  H   UNL     1      46.455  20.583  23.061  0.00  0.00    +0.386 HD
ENDBRANCH  16  17
BRANCH  19  20
ATOM     20  C   UNL     1      47.735  19.220  21.940  0.00  0.00    +0.447 C 
ATOM     21  O   UNL     1      47.096  18.366  22.505  0.00  0.00    -0.444 OA
ENDBRANCH  19  20
TORSDOF 3
ENDMDL
MODEL 4
REMARK VINA RESULT:      -5.2      4.405      6.727
REMARK  Name = ZINC15250727
REMARK  6 active torsions:
REMARK  status: ('A' for Active; 'I' for Inactive)
REMARK    1  A    between atoms: C1_1  and  C2_2
REMARK    2  A    between atoms: C6_6  and  C19_25
REMARK    3  A    between atoms: C6_6  and  C20_26
REMARK    4  A    between atoms: C10_11  and  C18_23
REMARK    5  A    between atoms: C14_16  and  C17_21
REMARK    6  A    between atoms: C16_18  and  O1_20
REMARK                            x       y       z     vdW  Elec       q    Type
REMARK                         _______ _______ _______ _____ _____    ______ ____
ROOT
ATOM      1  C   UNL     1      50.885  19.089  20.912  0.00  0.00    +0.026 C 
ATOM      2  C   UNL     1      50.293  18.640  19.577  0.00  0.00    -0.040 C 
ATOM      3  C   UNL     1      51.280  17.606  19.002  0.00  0.00    +0.022 C 
ATOM      4  C   UNL     1      52.652  18.271  18.847  0.00  0.00    +0.001 C 
ATOM      5  C   UNL     1      52.560  19.401  17.830  0.00  0.00    +0.010 C 
ATOM      6  C   UNL     1      51.465  20.414  18.154  0.00  0.00    -0.048 C 
ATOM      7  C   UNL     1      51.974  21.426  19.179  0.00  0.00    +0.021 C 
ATOM      8  C   UNL     1      51.209  21.203  16.842  0.00  0.00    +0.010 C 
ATOM      9  C   UNL     1      48.916  17.974  19.774  0.00  0.00    +0.045 C 
ATOM     10  C   UNL     1      48.568  17.317  18.431  0.00  0.00    +0.063 C 
ATOM     11  C   UNL     1      47.687  16.108  18.673  0.00  0.00    +0.066 C 
ATOM     12  C   UNL     1      46.410  16.296  18.953  0.00  0.00    -0.230 C 
ATOM     15  C   UNL     1      45.899  17.722  19.051  0.00  0.00    +0.069 C 
ATOM     16  C   UNL     1      46.463  18.324  20.329  0.00  0.00    +0.178 C 
ATOM     19  C   UNL     1      47.843  18.969  20.146  0.00  0.00    -0.099 C 
ATOM     22  C   UNL     1      47.742  20.102  19.142  0.00  0.00    +0.044 C 
ATOM     23  C   UNL     1      49.110  20.788  18.990  0.00  0.00    +0.021 C 
ATOM     24  C   UNL     1      50.157  19.765  18.561  0.00  0.00    +0.003 C 
ENDROOT
BRANCH  12  13
ATOM     13  C   UNL     1      45.511  15.167  19.162  0.00  0.00    +0.476 C 
ATOM     14  O   UNL     1      45.165  14.867  20.285  0.00  0.00    -0.459 OA
ENDBRANCH  12  13
BRANCH  16  17
ATOM     17  O   UNL     1      45.564  19.317  20.829  0.00  0.00    -0.565 OA
ATOM     18  H   UNL     1      44.839  18.960  21.360  0.00  0.00    +0.386 HD
ENDBRANCH  16  17
BRANCH  19  20
ATOM     20  C   UNL     1      48.075  19.578  21.510  0.00  0.00    +0.447 C 
ATOM     21  O   UNL     1      47.776  18.962  22.505  0.00  0.00    -0.444 OA
ENDBRANCH  19  20
TORSDOF 3
ENDMDL
MODEL 5
REMARK VINA RESULT:      -5.2      4.267      6.386
REMARK  Name = ZINC15250727
REMARK  6 active torsions:
REMARK  status: ('A' for Active; 'I' for Inactive)
REMARK    1  A    between atoms: C1_1  and  C2_2
REMARK    2  A    between atoms: C6_6  and  C19_25
REMARK    3  A    between atoms: C6_6  and  C20_26
REMARK    4  A    between atoms: C10_11  and  C18_23
REMARK    5  A    between atoms: C14_16  and  C17_21
REMARK    6  A    between atoms: C16_18  and  O1_20
REMARK                            x       y       z     vdW  Elec       q    Type
REMARK                         _______ _______ _______ _____ _____    ______ ____
ROOT
ATOM      1  C   UNL     1      50.390  18.680  17.331  0.00  0.00    +0.026 C 
ATOM      2  C   UNL     1      49.825  19.436  18.533  0.00  0.00    -0.040 C 
ATOM      3  C   UNL     1      50.294  20.895  18.374  0.00  0.00    +0.022 C 
ATOM      4  C   UNL     1      51.826  20.915  18.329  0.00  0.00    +0.001 C 
ATOM      5  C   UNL     1      52.383  20.417  19.657  0.00  0.00    +0.010 C 
ATOM      6  C   UNL     1      51.839  19.050  20.062  0.00  0.00    -0.048 C 
ATOM      7  C   UNL     1      52.624  17.944  19.360  0.00  0.00    +0.021 C 
ATOM      8  C   UNL     1      52.131  18.905  21.580  0.00  0.00    +0.010 C 
ATOM      9  C   UNL     1      48.283  19.396  18.542  0.00  0.00    +0.045 C 
ATOM     10  C   UNL     1      47.840  20.414  19.603  0.00  0.00    +0.063 C 
ATOM     11  C   UNL     1      46.483  20.976  19.228  0.00  0.00    +0.066 C 
ATOM     12  C   UNL     1      45.409  20.237  19.435  0.00  0.00    -0.230 C 
ATOM     15  C   UNL     1      45.595  18.844  20.010  0.00  0.00    +0.069 C 
ATOM     16  C   UNL     1      46.211  17.978  18.922  0.00  0.00    +0.178 C 
ATOM     19  C   UNL     1      47.744  18.030  18.892  0.00  0.00    -0.099 C 
ATOM     22  C   UNL     1      48.292  17.521  20.212  0.00  0.00    +0.044 C 
ATOM     23  C   UNL     1      49.830  17.522  20.173  0.00  0.00    +0.021 C 
ATOM     24  C   UNL     1      50.340  18.926  19.871  0.00  0.00    +0.003 C 
ENDROOT
BRANCH  12  13
ATOM     13  C   UNL     1      44.076  20.741  19.125  0.00  0.00    +0.476 C 
ATOM     14  O   UNL     1      43.287  20.041  18.526  0.00  0.00    -0.459 OA
ENDBRANCH  12  13
BRANCH  16  17
ATOM     17  O   UNL     1      45.809  16.619  19.105  0.00  0.00    -0.565 OA
ATOM     18  H   UNL     1      46.546  16.005  19.233  0.00  0.00    +0.386 HD
ENDBRANCH  16  17
BRANCH  19  20
ATOM     20  C   UNL     1      48.061  17.001  17.831  0.00  0.00    +0.447 C 
ATOM     21  O   UNL     1      47.421  16.973  16.808  0.00  0.00    -0.444 OA
ENDBRANCH  19  20
TORSDOF 3
ENDMDL
MODEL 6
REMARK VINA RESULT:      -5.1      3.649      6.626
REMARK  Name = ZINC15250727
REMARK  6 active torsions:
REMARK  status: ('A' for Active; 'I' for Inactive)
REMARK    1  A    between atoms: C1_1  and  C2_2
REMARK    2  A    between atoms: C6_6  and  C19_25
REMARK    3  A    between atoms: C6_6  and  C20_26
REMARK    4  A    between atoms: C10_11  and  C18_23
REMARK    5  A    between atoms: C14_16  and  C17_21
REMARK    6  A    between atoms: C16_18  and  O1_20
REMARK                            x       y       z     vdW  Elec       q    Type
REMARK                         _______ _______ _______ _____ _____    ______ ____
ROOT
ATOM      1  C   UNL     1      46.850  19.140  20.733  0.00  0.00    +0.026 C 
ATOM      2  C   UNL     1      46.076  18.551  19.555  0.00  0.00    -0.040 C 
ATOM      3  C   UNL     1      46.176  19.589  18.421  0.00  0.00    +0.022 C 
ATOM      4  C   UNL     1      45.583  20.913  18.916  0.00  0.00    +0.001 C 
ATOM      5  C   UNL     1      44.100  20.730  19.213  0.00  0.00    +0.010 C 
ATOM      6  C   UNL     1      43.818  19.580  20.176  0.00  0.00    -0.048 C 
ATOM      7  C   UNL     1      44.013  20.044  21.619  0.00  0.00    +0.021 C 
ATOM      8  C   UNL     1      42.310  19.248  20.018  0.00  0.00    +0.010 C 
ATOM      9  C   UNL     1      46.704  17.223  19.085  0.00  0.00    +0.045 C 
ATOM     10  C   UNL     1      46.034  16.890  17.744  0.00  0.00    +0.063 C 
ATOM     11  C   UNL     1      46.994  16.093  16.884  0.00  0.00    +0.066 C 
ATOM     12  C   UNL     1      47.176  14.813  17.152  0.00  0.00    -0.230 C 
ATOM     15  C   UNL     1      46.435  14.214  18.335  0.00  0.00    +0.069 C 
ATOM     16  C   UNL     1      47.074  14.764  19.601  0.00  0.00    +0.178 C 
ATOM     19  C   UNL     1      46.469  16.097  20.063  0.00  0.00    -0.099 C 
ATOM     22  C   UNL     1      44.997  15.905  20.369  0.00  0.00    +0.044 C 
ATOM     23  C   UNL     1      44.394  17.223  20.882  0.00  0.00    +0.021 C 
ATOM     24  C   UNL     1      44.600  18.324  19.848  0.00  0.00    +0.003 C 
ENDROOT
BRANCH  12  13
ATOM     13  C   UNL     1      48.061  13.991  16.335  0.00  0.00    +0.476 C 
ATOM     14  O   UNL     1      47.603  13.311  15.440  0.00  0.00    -0.459 OA
ENDBRANCH  12  13
BRANCH  16  17
ATOM     17  O   UNL     1      46.934  13.815  20.660  0.00  0.00    -0.565 OA
ATOM     18  H   UNL     1      47.589  13.104  20.640  0.00  0.00    +0.386 HD
ENDBRANCH  16  17
BRANCH  19  20
ATOM     20  C   UNL     1      47.191  16.318  21.373  0.00  0.00    +0.447 C 
ATOM     21  O   UNL     1      48.374  16.088  21.456  0.00  0.00    -0.444 OA
ENDBRANCH  19  20
TORSDOF 3
ENDMDL
MODEL 7
REMARK VINA RESULT:      -5.0      4.152      7.067
REMARK  Name = ZINC15250727
REMARK  6 active torsions:
REMARK  status: ('A' for Active; 'I' for Inactive)
REMARK    1  A    between atoms: C1_1  and  C2_2
REMARK    2  A    between atoms: C6_6  and  C19_25
REMARK    3  A    between atoms: C6_6  and  C20_26
REMARK    4  A    between atoms: C10_11  and  C18_23
REMARK    5  A    between atoms: C14_16  and  C17_21
REMARK    6  A    between atoms: C16_18  and  O1_20
REMARK                            x       y       z     vdW  Elec       q    Type
REMARK                         _______ _______ _______ _____ _____    ______ ____
ROOT
ATOM      1  C   UNL     1      46.965  19.727  22.301  0.00  0.00    +0.026 C 
ATOM      2  C   UNL     1      47.144  20.334  20.910  0.00  0.00    -0.040 C 
ATOM      3  C   UNL     1      47.235  21.858  21.121  0.00  0.00    +0.022 C 
ATOM      4  C   UNL     1      45.954  22.333  21.815  0.00  0.00    +0.001 C 
ATOM      5  C   UNL     1      44.758  22.088  20.903  0.00  0.00    +0.010 C 
ATOM      6  C   UNL     1      44.650  20.641  20.430  0.00  0.00    -0.048 C 
ATOM      7  C   UNL     1      43.965  19.789  21.498  0.00  0.00    +0.021 C 
ATOM      8  C   UNL     1      43.699  20.661  19.203  0.00  0.00    +0.010 C 
ATOM      9  C   UNL     1      48.444  19.834  20.247  0.00  0.00    +0.045 C 
ATOM     10  C   UNL     1      48.655  20.721  19.011  0.00  0.00    +0.063 C 
ATOM     11  C   UNL     1      50.138  20.832  18.717  0.00  0.00    +0.066 C 
ATOM     12  C   UNL     1      50.750  19.816  18.138  0.00  0.00    -0.230 C 
ATOM     15  C   UNL     1      49.938  18.570  17.826  0.00  0.00    +0.069 C 
ATOM     16  C   UNL     1      49.635  17.880  19.147  0.00  0.00    +0.178 C 
ATOM     19  C   UNL     1      48.355  18.387  19.824  0.00  0.00    -0.099 C 
ATOM     22  C   UNL     1      47.167  18.129  18.918  0.00  0.00    +0.044 C 
ATOM     23  C   UNL     1      45.873  18.588  19.611  0.00  0.00    +0.021 C 
ATOM     24  C   UNL     1      45.976  20.065  19.973  0.00  0.00    +0.003 C 
ENDROOT
BRANCH  12  13
ATOM     13  C   UNL     1      52.167  19.883  17.801  0.00  0.00    +0.476 C 
ATOM     14  O   UNL     1      52.527  19.708  16.655  0.00  0.00    -0.459 OA
ENDBRANCH  12  13
BRANCH  16  17
ATOM     17  O   UNL     1      49.504  16.473  18.934  0.00  0.00    -0.565 OA
ATOM     18  H   UNL     1      49.206  15.983  19.712  0.00  0.00    +0.386 HD
ENDBRANCH  16  17
BRANCH  19  20
ATOM     20  C   UNL     1      48.249  17.452  21.008  0.00  0.00    +0.447 C 
ATOM     21  O   UNL     1      49.237  17.161  21.637  0.00  0.00    -0.444 OA
ENDBRANCH  19  20
TORSDOF 3
ENDMDL
MODEL 8
REMARK VINA RESULT:      -5.0     22.140     24.135
REMARK  Name = ZINC15250727
REMARK  6 active torsions:
REMARK  status: ('A' for Active; 'I' for Inactive)
REMARK    1  A    between atoms: C1_1  and  C2_2
REMARK    2  A    between atoms: C6_6  and  C19_25
REMARK    3  A    between atoms: C6_6  and  C20_26
REMARK    4  A    between atoms: C10_11  and  C18_23
REMARK    5  A    between atoms: C14_16  and  C17_21
REMARK    6  A    between atoms: C16_18  and  O1_20
REMARK                            x       y       z     vdW  Elec       q    Type
REMARK                         _______ _______ _______ _____ _____    ______ ____
ROOT
ATOM      1  C   UNL     1      53.714  31.642   4.859  0.00  0.00    +0.026 C 
ATOM      2  C   UNL     1      53.828  32.639   3.707  0.00  0.00    -0.040 C 
ATOM      3  C   UNL     1      54.814  32.015   2.701  0.00  0.00    +0.022 C 
ATOM      4  C   UNL     1      56.151  31.777   3.412  0.00  0.00    +0.001 C 
ATOM      5  C   UNL     1      56.748  33.112   3.840  0.00  0.00    +0.010 C 
ATOM      6  C   UNL     1      55.793  33.953   4.682  0.00  0.00    -0.048 C 
ATOM      7  C   UNL     1      55.845  33.504   6.141  0.00  0.00    +0.021 C 
ATOM      8  C   UNL     1      56.352  35.401   4.645  0.00  0.00    +0.010 C 
ATOM      9  C   UNL     1      52.464  32.850   3.016  0.00  0.00    +0.045 C 
ATOM     10  C   UNL     1      52.761  33.623   1.723  0.00  0.00    +0.063 C 
ATOM     11  C   UNL     1      51.721  33.275   0.677  0.00  0.00    +0.066 C 
ATOM     12  C   UNL     1      50.520  33.816   0.768  0.00  0.00    -0.230 C 
ATOM     15  C   UNL     1      50.233  34.736   1.942  0.00  0.00    +0.069 C 
ATOM     16  C   UNL     1      50.146  33.872   3.191  0.00  0.00    +0.178 C 
ATOM     19  C   UNL     1      51.502  33.639   3.871  0.00  0.00    -0.099 C 
ATOM     22  C   UNL     1      52.084  34.970   4.306  0.00  0.00    +0.044 C 
ATOM     23  C   UNL     1      53.419  34.743   5.035  0.00  0.00    +0.021 C 
ATOM     24  C   UNL     1      54.384  33.993   4.124  0.00  0.00    +0.003 C 
ENDROOT
BRANCH  12  13
ATOM     13  C   UNL     1      49.493  33.543  -0.230  0.00  0.00    +0.476 C 
ATOM     14  O   UNL     1      49.709  32.746  -1.120  0.00  0.00    -0.459 OA
ENDBRANCH  12  13
BRANCH  16  17
ATOM     17  O   UNL     1      49.266  34.483   4.137  0.00  0.00    -0.565 OA
ATOM     18  H   UNL     1      49.412  35.432   4.253  0.00  0.00    +0.386 HD
ENDBRANCH  16  17
BRANCH  19  20
ATOM     20  C   UNL     1      51.090  32.884   5.114  0.00  0.00    +0.447 C 
ATOM     21  O   UNL     1      50.861  33.484   6.137  0.00  0.00    -0.444 OA
ENDBRANCH  19  20
TORSDOF 3
ENDMDL
MODEL 9
REMARK VINA RESULT:      -4.9     22.637     24.696
REMARK  Name = ZINC15250727
REMARK  6 active torsions:
REMARK  status: ('A' for Active; 'I' for Inactive)
REMARK    1  A    between atoms: C1_1  and  C2_2
REMARK    2  A    between atoms: C6_6  and  C19_25
REMARK    3  A    between atoms: C6_6  and  C20_26
REMARK    4  A    between atoms: C10_11  and  C18_23
REMARK    5  A    between atoms: C14_16  and  C17_21
REMARK    6  A    between atoms: C16_18  and  O1_20
REMARK                            x       y       z     vdW  Elec       q    Type
REMARK                         _______ _______ _______ _____ _____    ______ ____
ROOT
ATOM      1  C   UNL     1      56.519  34.061   1.835  0.00  0.00    +0.026 C 
ATOM      2  C   UNL     1      56.618  33.570   3.278  0.00  0.00    -0.040 C 
ATOM      3  C   UNL     1      57.848  34.274   3.882  0.00  0.00    +0.022 C 
ATOM      4  C   UNL     1      59.080  33.907   3.047  0.00  0.00    +0.001 C 
ATOM      5  C   UNL     1      59.338  32.410   3.147  0.00  0.00    +0.010 C 
ATOM      6  C   UNL     1      58.123  31.564   2.777  0.00  0.00    -0.048 C 
ATOM      7  C   UNL     1      58.033  31.410   1.260  0.00  0.00    +0.021 C 
ATOM      8  C   UNL     1      58.396  30.147   3.351  0.00  0.00    +0.010 C 
ATOM      9  C   UNL     1      55.362  33.960   4.086  0.00  0.00    +0.045 C 
ATOM     10  C   UNL     1      55.703  33.679   5.557  0.00  0.00    +0.063 C 
ATOM     11  C   UNL     1      54.923  34.627   6.445  0.00  0.00    +0.066 C 
ATOM     12  C   UNL     1      53.641  34.391   6.659  0.00  0.00    -0.230 C 
ATOM     15  C   UNL     1      53.007  33.194   5.972  0.00  0.00    +0.069 C 
ATOM     16  C   UNL     1      52.894  33.523   4.491  0.00  0.00    +0.178 C 
ATOM     19  C   UNL     1      54.147  33.159   3.684  0.00  0.00    -0.099 C 
ATOM     22  C   UNL     1      54.392  31.665   3.778  0.00  0.00    +0.044 C 
ATOM     23  C   UNL     1      55.617  31.283   2.930  0.00  0.00    +0.021 C 
ATOM     24  C   UNL     1      56.836  32.069   3.399  0.00  0.00    +0.003 C 
ENDROOT
BRANCH  12  13
ATOM     13  C   UNL     1      52.851  35.250   7.532  0.00  0.00    +0.476 C 
ATOM     14  O   UNL     1      51.642  35.143   7.557  0.00  0.00    -0.459 OA
ENDBRANCH  12  13
BRANCH  16  17
ATOM     17  O   UNL     1      51.778  32.829   3.929  0.00  0.00    -0.565 OA
ATOM     18  H   UNL     1      52.020  32.037   3.430  0.00  0.00    +0.386 HD
ENDBRANCH  16  17
BRANCH  19  20
ATOM     20  C   UNL     1      53.699  33.469   2.274  0.00  0.00    +0.447 C 
ATOM     21  O   UNL     1      53.108  34.495   2.040  0.00  0.00    -0.444 OA
ENDBRANCH  19  20
TORSDOF 3
ENDMDL
