MODEL 1
REMARK VINA RESULT:      -6.2      0.000      0.000
REMARK  Name = ZINC00058188
REMARK  6 active torsions:
REMARK  status: ('A' for Active; 'I' for Inactive)
REMARK    1  A    between atoms: C1_1  and  O1_2
REMARK    2  A    between atoms: O1_2  and  C2_3
REMARK    3  A    between atoms: C9_11  and  C10_12
REMARK    4  A    between atoms: C10_12  and  C11_14
REMARK    5  A    between atoms: C11_14  and  C12_15
REMARK    6  A    between atoms: C12_15  and  C13_17
REMARK                            x       y       z     vdW  Elec       q    Type
REMARK                         _______ _______ _______ _____ _____    ______ ____
ROOT
ATOM      3  C   UNL     1      43.485  20.478  19.182  0.00  0.00    +0.215 A 
ATOM      4  C   UNL     1      42.157  20.753  18.842  0.00  0.00    -0.168 A 
ATOM      5  C   UNL     1      41.014  19.929  18.432  0.00  0.00    -0.029 A 
ATOM      6  C   UNL     1      39.991  20.775  18.252  0.00  0.00    +0.222 A 
ATOM      7  O   UNL     1      40.381  22.035  18.515  0.00  0.00    -0.187 OA
ATOM      8  C   UNL     1      41.678  22.072  18.877  0.00  0.00    +0.092 A 
ATOM      9  C   UNL     1      42.537  23.109  19.242  0.00  0.00    +0.025 A 
ATOM     10  C   UNL     1      43.833  22.851  19.568  0.00  0.00    +0.100 A 
ATOM     11  C   UNL     1      44.331  21.537  19.545  0.00  0.00    -0.209 A 
ENDROOT
BRANCH   3   2
ATOM      1  C   UNL     1      43.734  18.410  20.323  0.00  0.00    +0.243 C 
ATOM      2  O   UNL     1      43.950  19.205  19.155  0.00  0.00    -0.320 OA
ENDBRANCH   3   2
BRANCH  11  12
ATOM     12  C   UNL     1      45.727  21.273  19.899  0.00  0.00    +0.392 C 
ATOM     13  O   UNL     1      46.046  21.153  21.064  0.00  0.00    -0.399 OA
BRANCH  12  14
ATOM     14  C   UNL     1      46.769  21.149  18.818  0.00  0.00    +0.007 C 
BRANCH  14  15
ATOM     15  C   UNL     1      47.792  20.118  19.219  0.00  0.00    +0.426 C 
ATOM     16  O   UNL     1      47.463  18.958  19.349  0.00  0.00    -0.412 OA
BRANCH  15  17
ATOM     17  C   UNL     1      49.189  20.518  19.452  0.00  0.00    -0.169 A 
ATOM     18  C   UNL     1      49.691  20.589  20.755  0.00  0.00    +0.054 A 
ATOM     19  C   UNL     1      51.003  20.958  20.965  0.00  0.00    -0.000 A 
ATOM     20  C   UNL     1      51.818  21.270  19.891  0.00  0.00    +0.041 A 
ATOM     21  C   UNL     1      51.327  21.208  18.599  0.00  0.00    +0.001 A 
ATOM     22  C   UNL     1      50.019  20.834  18.372  0.00  0.00    +0.075 A 
ENDBRANCH  15  17
ENDBRANCH  14  15
ENDBRANCH  12  14
ENDBRANCH  11  12
TORSDOF 5
ENDMDL
MODEL 2
REMARK VINA RESULT:      -6.0      2.349      3.726
REMARK  Name = ZINC00058188
REMARK  6 active torsions:
REMARK  status: ('A' for Active; 'I' for Inactive)
REMARK    1  A    between atoms: C1_1  and  O1_2
REMARK    2  A    between atoms: O1_2  and  C2_3
REMARK    3  A    between atoms: C9_11  and  C10_12
REMARK    4  A    between atoms: C10_12  and  C11_14
REMARK    5  A    between atoms: C11_14  and  C12_15
REMARK    6  A    between atoms: C12_15  and  C13_17
REMARK                            x       y       z     vdW  Elec       q    Type
REMARK                         _______ _______ _______ _____ _____    ______ ____
ROOT
ATOM      3  C   UNL     1      45.469  18.187  18.914  0.00  0.00    +0.215 A 
ATOM      4  C   UNL     1      44.448  19.065  19.289  0.00  0.00    -0.168 A 
ATOM      5  C   UNL     1      43.082  18.889  19.796  0.00  0.00    -0.029 A 
ATOM      6  C   UNL     1      42.593  20.122  19.984  0.00  0.00    +0.222 A 
ATOM      7  O   UNL     1      43.517  21.042  19.653  0.00  0.00    -0.187 OA
ATOM      8  C   UNL     1      44.653  20.452  19.230  0.00  0.00    +0.092 A 
ATOM      9  C   UNL     1      45.877  20.951  18.785  0.00  0.00    +0.025 A 
ATOM     10  C   UNL     1      46.875  20.103  18.412  0.00  0.00    +0.100 A 
ATOM     11  C   UNL     1      46.692  18.711  18.469  0.00  0.00    -0.209 A 
ENDROOT
BRANCH   3   2
ATOM      1  C   UNL     1      45.391  16.232  20.260  0.00  0.00    +0.243 C 
ATOM      2  O   UNL     1      45.277  16.847  18.975  0.00  0.00    -0.320 OA
ENDBRANCH   3   2
BRANCH  11  12
ATOM     12  C   UNL     1      47.774  17.810  18.065  0.00  0.00    +0.392 C 
ATOM     13  O   UNL     1      47.730  17.252  16.989  0.00  0.00    -0.399 OA
BRANCH  12  14
ATOM     14  C   UNL     1      48.942  17.575  18.988  0.00  0.00    +0.007 C 
BRANCH  14  15
ATOM     15  C   UNL     1      50.219  17.557  18.188  0.00  0.00    +0.426 C 
ATOM     16  O   UNL     1      50.843  16.525  18.066  0.00  0.00    -0.412 OA
BRANCH  15  17
ATOM     17  C   UNL     1      50.708  18.792  17.555  0.00  0.00    -0.169 A 
ATOM     18  C   UNL     1      51.284  18.748  16.281  0.00  0.00    +0.054 A 
ATOM     19  C   UNL     1      51.734  19.911  15.692  0.00  0.00    -0.000 A 
ATOM     20  C   UNL     1      51.628  21.117  16.363  0.00  0.00    +0.041 A 
ATOM     21  C   UNL     1      51.066  21.167  17.626  0.00  0.00    +0.001 A 
ATOM     22  C   UNL     1      50.605  20.015  18.226  0.00  0.00    +0.075 A 
ENDBRANCH  15  17
ENDBRANCH  14  15
ENDBRANCH  12  14
ENDBRANCH  11  12
TORSDOF 5
ENDMDL
MODEL 3
REMARK VINA RESULT:      -5.7      1.538      2.596
REMARK  Name = ZINC00058188
REMARK  6 active torsions:
REMARK  status: ('A' for Active; 'I' for Inactive)
REMARK    1  A    between atoms: C1_1  and  O1_2
REMARK    2  A    between atoms: O1_2  and  C2_3
REMARK    3  A    between atoms: C9_11  and  C10_12
REMARK    4  A    between atoms: C10_12  and  C11_14
REMARK    5  A    between atoms: C11_14  and  C12_15
REMARK    6  A    between atoms: C12_15  and  C13_17
REMARK                            x       y       z     vdW  Elec       q    Type
REMARK                         _______ _______ _______ _____ _____    ______ ____
ROOT
ATOM      3  C   UNL     1      43.366  20.730  19.680  0.00  0.00    +0.215 A 
ATOM      4  C   UNL     1      42.032  20.974  19.341  0.00  0.00    -0.168 A 
ATOM      5  C   UNL     1      41.352  21.987  18.525  0.00  0.00    -0.029 A 
ATOM      6  C   UNL     1      40.048  21.688  18.571  0.00  0.00    +0.222 A 
ATOM      7  O   UNL     1      39.850  20.591  19.324  0.00  0.00    -0.187 OA
ATOM      8  C   UNL     1      41.018  20.123  19.808  0.00  0.00    +0.092 A 
ATOM      9  C   UNL     1      41.346  19.038  20.621  0.00  0.00    +0.025 A 
ATOM     10  C   UNL     1      42.642  18.796  20.960  0.00  0.00    +0.100 A 
ATOM     11  C   UNL     1      43.673  19.633  20.499  0.00  0.00    -0.209 A 
ENDROOT
BRANCH   3   2
ATOM      1  C   UNL     1      44.492  22.811  19.874  0.00  0.00    +0.243 C 
ATOM      2  O   UNL     1      44.349  21.545  19.227  0.00  0.00    -0.320 OA
ENDBRANCH   3   2
BRANCH  11  12
ATOM     12  C   UNL     1      45.063  19.361  20.871  0.00  0.00    +0.392 C 
ATOM     13  O   UNL     1      45.609  20.037  21.718  0.00  0.00    -0.399 OA
BRANCH  12  14
ATOM     14  C   UNL     1      45.817  18.240  20.203  0.00  0.00    +0.007 C 
BRANCH  14  15
ATOM     15  C   UNL     1      46.379  18.723  18.891  0.00  0.00    +0.426 C 
ATOM     16  O   UNL     1      45.677  18.746  17.903  0.00  0.00    -0.412 OA
BRANCH  15  17
ATOM     17  C   UNL     1      47.780  19.167  18.809  0.00  0.00    -0.169 A 
ATOM     18  C   UNL     1      48.125  20.474  19.170  0.00  0.00    +0.054 A 
ATOM     19  C   UNL     1      49.440  20.880  19.096  0.00  0.00    -0.000 A 
ATOM     20  C   UNL     1      50.416  20.002  18.657  0.00  0.00    +0.041 A 
ATOM     21  C   UNL     1      50.082  18.710  18.293  0.00  0.00    +0.001 A 
ATOM     22  C   UNL     1      48.771  18.286  18.366  0.00  0.00    +0.075 A 
ENDBRANCH  15  17
ENDBRANCH  14  15
ENDBRANCH  12  14
ENDBRANCH  11  12
TORSDOF 5
ENDMDL
MODEL 4
REMARK VINA RESULT:      -5.6      1.582      2.859
REMARK  Name = ZINC00058188
REMARK  6 active torsions:
REMARK  status: ('A' for Active; 'I' for Inactive)
REMARK    1  A    between atoms: C1_1  and  O1_2
REMARK    2  A    between atoms: O1_2  and  C2_3
REMARK    3  A    between atoms: C9_11  and  C10_12
REMARK    4  A    between atoms: C10_12  and  C11_14
REMARK    5  A    between atoms: C11_14  and  C12_15
REMARK    6  A    between atoms: C12_15  and  C13_17
REMARK                            x       y       z     vdW  Elec       q    Type
REMARK                         _______ _______ _______ _____ _____    ______ ____
ROOT
ATOM      3  C   UNL     1      44.548  21.034  19.619  0.00  0.00    +0.215 A 
ATOM      4  C   UNL     1      43.229  20.590  19.490  0.00  0.00    -0.168 A 
ATOM      5  C   UNL     1      41.987  21.201  19.004  0.00  0.00    -0.029 A 
ATOM      6  C   UNL     1      41.040  20.262  19.119  0.00  0.00    +0.222 A 
ATOM      7  O   UNL     1      41.568  19.130  19.619  0.00  0.00    -0.187 OA
ATOM      8  C   UNL     1      42.887  19.279  19.855  0.00  0.00    +0.092 A 
ATOM      9  C   UNL     1      43.868  18.424  20.359  0.00  0.00    +0.025 A 
ATOM     10  C   UNL     1      45.153  18.850  20.494  0.00  0.00    +0.100 A 
ATOM     11  C   UNL     1      45.518  20.157  20.128  0.00  0.00    -0.209 A 
ENDROOT
BRANCH   3   2
ATOM      1  C   UNL     1      44.681  23.323  20.235  0.00  0.00    +0.243 C 
ATOM      2  O   UNL     1      44.885  22.297  19.262  0.00  0.00    -0.320 OA
ENDBRANCH   3   2
BRANCH  11  12
ATOM     12  C   UNL     1      46.905  20.603  20.277  0.00  0.00    +0.392 C 
ATOM     13  O   UNL     1      47.336  20.890  21.375  0.00  0.00    -0.399 OA
BRANCH  12  14
ATOM     14  C   UNL     1      47.799  20.704  19.068  0.00  0.00    +0.007 C 
BRANCH  14  15
ATOM     15  C   UNL     1      48.828  19.604  19.109  0.00  0.00    +0.426 C 
ATOM     16  O   UNL     1      48.698  18.681  19.885  0.00  0.00    -0.412 OA
BRANCH  15  17
ATOM     17  C   UNL     1      49.991  19.650  18.209  0.00  0.00    -0.169 A 
ATOM     18  C   UNL     1      50.417  18.492  17.551  0.00  0.00    +0.054 A 
ATOM     19  C   UNL     1      51.503  18.545  16.704  0.00  0.00    -0.000 A 
ATOM     20  C   UNL     1      52.179  19.738  16.513  0.00  0.00    +0.041 A 
ATOM     21  C   UNL     1      51.768  20.887  17.165  0.00  0.00    +0.001 A 
ATOM     22  C   UNL     1      50.679  20.852  18.010  0.00  0.00    +0.075 A 
ENDBRANCH  15  17
ENDBRANCH  14  15
ENDBRANCH  12  14
ENDBRANCH  11  12
TORSDOF 5
ENDMDL
MODEL 5
REMARK VINA RESULT:      -5.6      2.290      3.392
REMARK  Name = ZINC00058188
REMARK  6 active torsions:
REMARK  status: ('A' for Active; 'I' for Inactive)
REMARK    1  A    between atoms: C1_1  and  O1_2
REMARK    2  A    between atoms: O1_2  and  C2_3
REMARK    3  A    between atoms: C9_11  and  C10_12
REMARK    4  A    between atoms: C10_12  and  C11_14
REMARK    5  A    between atoms: C11_14  and  C12_15
REMARK    6  A    between atoms: C12_15  and  C13_17
REMARK                            x       y       z     vdW  Elec       q    Type
REMARK                         _______ _______ _______ _____ _____    ______ ____
ROOT
ATOM      3  C   UNL     1      45.370  18.568  20.415  0.00  0.00    +0.215 A 
ATOM      4  C   UNL     1      44.027  18.682  20.783  0.00  0.00    -0.168 A 
ATOM      5  C   UNL     1      43.229  18.192  21.912  0.00  0.00    -0.029 A 
ATOM      6  C   UNL     1      41.984  18.642  21.712  0.00  0.00    +0.222 A 
ATOM      7  O   UNL     1      41.930  19.367  20.580  0.00  0.00    -0.187 OA
ATOM      8  C   UNL     1      43.138  19.422  19.986  0.00  0.00    +0.092 A 
ATOM      9  C   UNL     1      43.600  20.032  18.820  0.00  0.00    +0.025 A 
ATOM     10  C   UNL     1      44.906  19.920  18.452  0.00  0.00    +0.100 A 
ATOM     11  C   UNL     1      45.813  19.189  19.238  0.00  0.00    -0.209 A 
ENDROOT
BRANCH   3   2
ATOM      1  C   UNL     1      46.807  18.535  22.305  0.00  0.00    +0.243 C 
ATOM      2  O   UNL     1      46.233  17.860  21.184  0.00  0.00    -0.320 OA
ENDBRANCH   3   2
BRANCH  11  12
ATOM     12  C   UNL     1      47.216  19.078  18.831  0.00  0.00    +0.392 C 
ATOM     13  O   UNL     1      47.588  18.114  18.195  0.00  0.00    -0.399 OA
BRANCH  12  14
ATOM     14  C   UNL     1      48.196  20.160  19.202  0.00  0.00    +0.007 C 
BRANCH  14  15
ATOM     15  C   UNL     1      49.591  19.588  19.228  0.00  0.00    +0.426 C 
ATOM     16  O   UNL     1      49.988  19.005  20.213  0.00  0.00    -0.412 OA
BRANCH  15  17
ATOM     17  C   UNL     1      50.469  19.738  18.057  0.00  0.00    -0.169 A 
ATOM     18  C   UNL     1      50.927  18.608  17.372  0.00  0.00    +0.054 A 
ATOM     19  C   UNL     1      51.744  18.758  16.272  0.00  0.00    -0.000 A 
ATOM     20  C   UNL     1      52.121  20.021  15.852  0.00  0.00    +0.041 A 
ATOM     21  C   UNL     1      51.678  21.144  16.527  0.00  0.00    +0.001 A 
ATOM     22  C   UNL     1      50.854  21.012  17.626  0.00  0.00    +0.075 A 
ENDBRANCH  15  17
ENDBRANCH  14  15
ENDBRANCH  12  14
ENDBRANCH  11  12
TORSDOF 5
ENDMDL
MODEL 6
REMARK VINA RESULT:      -5.6      3.377      4.908
REMARK  Name = ZINC00058188
REMARK  6 active torsions:
REMARK  status: ('A' for Active; 'I' for Inactive)
REMARK    1  A    between atoms: C1_1  and  O1_2
REMARK    2  A    between atoms: O1_2  and  C2_3
REMARK    3  A    between atoms: C9_11  and  C10_12
REMARK    4  A    between atoms: C10_12  and  C11_14
REMARK    5  A    between atoms: C11_14  and  C12_15
REMARK    6  A    between atoms: C12_15  and  C13_17
REMARK                            x       y       z     vdW  Elec       q    Type
REMARK                         _______ _______ _______ _____ _____    ______ ____
ROOT
ATOM      3  C   UNL     1      46.229  17.783  19.847  0.00  0.00    +0.215 A 
ATOM      4  C   UNL     1      45.905  16.437  19.656  0.00  0.00    -0.168 A 
ATOM      5  C   UNL     1      45.321  15.393  20.506  0.00  0.00    -0.029 A 
ATOM      6  C   UNL     1      45.246  14.292  19.747  0.00  0.00    +0.222 A 
ATOM      7  O   UNL     1      45.715  14.548  18.513  0.00  0.00    -0.187 OA
ATOM      8  C   UNL     1      46.122  15.829  18.409  0.00  0.00    +0.092 A 
ATOM      9  C   UNL     1      46.673  16.572  17.365  0.00  0.00    +0.025 A 
ATOM     10  C   UNL     1      46.997  17.882  17.545  0.00  0.00    +0.100 A 
ATOM     11  C   UNL     1      46.783  18.511  18.783  0.00  0.00    -0.209 A 
ENDROOT
BRANCH   3   2
ATOM      1  C   UNL     1      44.699  18.865  21.305  0.00  0.00    +0.243 C 
ATOM      2  O   UNL     1      46.016  18.375  21.047  0.00  0.00    -0.320 OA
ENDBRANCH   3   2
BRANCH  11  12
ATOM     12  C   UNL     1      47.135  19.921  18.963  0.00  0.00    +0.392 C 
ATOM     13  O   UNL     1      46.452  20.787  18.457  0.00  0.00    -0.399 OA
BRANCH  12  14
ATOM     14  C   UNL     1      48.346  20.298  19.777  0.00  0.00    +0.007 C 
BRANCH  14  15
ATOM     15  C   UNL     1      49.493  19.388  19.422  0.00  0.00    +0.426 C 
ATOM     16  O   UNL     1      49.765  18.448  20.137  0.00  0.00    -0.412 OA
BRANCH  15  17
ATOM     17  C   UNL     1      50.284  19.642  18.207  0.00  0.00    -0.169 A 
ATOM     18  C   UNL     1      50.605  18.588  17.345  0.00  0.00    +0.054 A 
ATOM     19  C   UNL     1      51.341  18.835  16.205  0.00  0.00    -0.000 A 
ATOM     20  C   UNL     1      51.772  20.119  15.920  0.00  0.00    +0.041 A 
ATOM     21  C   UNL     1      51.464  21.165  16.771  0.00  0.00    +0.001 A 
ATOM     22  C   UNL     1      50.723  20.936  17.912  0.00  0.00    +0.075 A 
ENDBRANCH  15  17
ENDBRANCH  14  15
ENDBRANCH  12  14
ENDBRANCH  11  12
TORSDOF 5
ENDMDL
MODEL 7
REMARK VINA RESULT:      -5.5      2.704      4.359
REMARK  Name = ZINC00058188
REMARK  6 active torsions:
REMARK  status: ('A' for Active; 'I' for Inactive)
REMARK    1  A    between atoms: C1_1  and  O1_2
REMARK    2  A    between atoms: O1_2  and  C2_3
REMARK    3  A    between atoms: C9_11  and  C10_12
REMARK    4  A    between atoms: C10_12  and  C11_14
REMARK    5  A    between atoms: C11_14  and  C12_15
REMARK    6  A    between atoms: C12_15  and  C13_17
REMARK                            x       y       z     vdW  Elec       q    Type
REMARK                         _______ _______ _______ _____ _____    ______ ____
ROOT
ATOM      3  C   UNL     1      45.233  18.351  19.038  0.00  0.00    +0.215 A 
ATOM      4  C   UNL     1      44.235  18.350  20.016  0.00  0.00    -0.168 A 
ATOM      5  C   UNL     1      43.187  19.299  20.409  0.00  0.00    -0.029 A 
ATOM      6  C   UNL     1      42.525  18.724  21.422  0.00  0.00    +0.222 A 
ATOM      7  O   UNL     1      43.050  17.515  21.691  0.00  0.00    -0.187 OA
ATOM      8  C   UNL     1      44.082  17.244  20.867  0.00  0.00    +0.092 A 
ATOM      9  C   UNL     1      44.939  16.151  20.740  0.00  0.00    +0.025 A 
ATOM     10  C   UNL     1      45.918  16.146  19.795  0.00  0.00    +0.100 A 
ATOM     11  C   UNL     1      46.084  17.241  18.929  0.00  0.00    -0.209 A 
ENDROOT
BRANCH   3   2
ATOM      1  C   UNL     1      46.131  20.524  18.705  0.00  0.00    +0.243 C 
ATOM      2  O   UNL     1      45.381  19.413  18.210  0.00  0.00    -0.320 OA
ENDBRANCH   3   2
BRANCH  11  12
ATOM     12  C   UNL     1      47.141  17.222  17.915  0.00  0.00    +0.392 C 
ATOM     13  O   UNL     1      46.865  17.398  16.747  0.00  0.00    -0.399 OA
BRANCH  12  14
ATOM     14  C   UNL     1      48.573  16.986  18.323  0.00  0.00    +0.007 C 
BRANCH  14  15
ATOM     15  C   UNL     1      49.180  18.279  18.802  0.00  0.00    +0.426 C 
ATOM     16  O   UNL     1      48.908  18.704  19.905  0.00  0.00    -0.412 OA
BRANCH  15  17
ATOM     17  C   UNL     1      50.103  19.026  17.932  0.00  0.00    -0.169 A 
ATOM     18  C   UNL     1      50.658  18.412  16.806  0.00  0.00    +0.054 A 
ATOM     19  C   UNL     1      51.517  19.121  15.993  0.00  0.00    -0.000 A 
ATOM     20  C   UNL     1      51.838  20.432  16.295  0.00  0.00    +0.041 A 
ATOM     21  C   UNL     1      51.297  21.045  17.411  0.00  0.00    +0.001 A 
ATOM     22  C   UNL     1      50.432  20.352  18.232  0.00  0.00    +0.075 A 
ENDBRANCH  15  17
ENDBRANCH  14  15
ENDBRANCH  12  14
ENDBRANCH  11  12
TORSDOF 5
ENDMDL
MODEL 8
REMARK VINA RESULT:      -5.5      2.716      4.712
REMARK  Name = ZINC00058188
REMARK  6 active torsions:
REMARK  status: ('A' for Active; 'I' for Inactive)
REMARK    1  A    between atoms: C1_1  and  O1_2
REMARK    2  A    between atoms: O1_2  and  C2_3
REMARK    3  A    between atoms: C9_11  and  C10_12
REMARK    4  A    between atoms: C10_12  and  C11_14
REMARK    5  A    between atoms: C11_14  and  C12_15
REMARK    6  A    between atoms: C12_15  and  C13_17
REMARK                            x       y       z     vdW  Elec       q    Type
REMARK                         _______ _______ _______ _____ _____    ______ ____
ROOT
ATOM      3  C   UNL     1      48.128  20.287  19.961  0.00  0.00    +0.215 A 
ATOM      4  C   UNL     1      46.972  21.060  19.825  0.00  0.00    -0.168 A 
ATOM      5  C   UNL     1      45.914  21.151  18.812  0.00  0.00    -0.029 A 
ATOM      6  C   UNL     1      45.057  22.082  19.251  0.00  0.00    +0.222 A 
ATOM      7  O   UNL     1      45.471  22.572  20.433  0.00  0.00    -0.187 OA
ATOM      8  C   UNL     1      46.620  21.985  20.822  0.00  0.00    +0.092 A 
ATOM      9  C   UNL     1      47.436  22.136  21.943  0.00  0.00    +0.025 A 
ATOM     10  C   UNL     1      48.567  21.391  22.080  0.00  0.00    +0.100 A 
ATOM     11  C   UNL     1      48.935  20.456  21.097  0.00  0.00    -0.209 A 
ENDROOT
BRANCH   3   2
ATOM      1  C   UNL     1      47.833  18.111  19.058  0.00  0.00    +0.243 C 
ATOM      2  O   UNL     1      48.469  19.390  19.005  0.00  0.00    -0.320 OA
ENDBRANCH   3   2
BRANCH  11  12
ATOM     12  C   UNL     1      50.154  19.661  21.257  0.00  0.00    +0.392 C 
ATOM     13  O   UNL     1      50.106  18.580  21.805  0.00  0.00    -0.399 OA
BRANCH  12  14
ATOM     14  C   UNL     1      51.469  20.185  20.741  0.00  0.00    +0.007 C 
BRANCH  14  15
ATOM     15  C   UNL     1      52.001  19.255  19.682  0.00  0.00    +0.426 C 
ATOM     16  O   UNL     1      52.543  18.218  20.003  0.00  0.00    -0.412 OA
BRANCH  15  17
ATOM     17  C   UNL     1      51.864  19.604  18.259  0.00  0.00    -0.169 A 
ATOM     18  C   UNL     1      51.572  20.919  17.883  0.00  0.00    +0.054 A 
ATOM     19  C   UNL     1      51.451  21.239  16.547  0.00  0.00    -0.000 A 
ATOM     20  C   UNL     1      51.607  20.261  15.581  0.00  0.00    +0.041 A 
ATOM     21  C   UNL     1      51.890  18.957  15.945  0.00  0.00    +0.001 A 
ATOM     22  C   UNL     1      52.020  18.621  17.276  0.00  0.00    +0.075 A 
ENDBRANCH  15  17
ENDBRANCH  14  15
ENDBRANCH  12  14
ENDBRANCH  11  12
TORSDOF 5
ENDMDL
MODEL 9
REMARK VINA RESULT:      -5.3      3.854      7.613
REMARK  Name = ZINC00058188
REMARK  6 active torsions:
REMARK  status: ('A' for Active; 'I' for Inactive)
REMARK    1  A    between atoms: C1_1  and  O1_2
REMARK    2  A    between atoms: O1_2  and  C2_3
REMARK    3  A    between atoms: C9_11  and  C10_12
REMARK    4  A    between atoms: C10_12  and  C11_14
REMARK    5  A    between atoms: C11_14  and  C12_15
REMARK    6  A    between atoms: C12_15  and  C13_17
REMARK                            x       y       z     vdW  Elec       q    Type
REMARK                         _______ _______ _______ _____ _____    ______ ____
ROOT
ATOM      3  C   UNL     1      49.775  18.478  18.104  0.00  0.00    +0.215 A 
ATOM      4  C   UNL     1      50.739  19.058  17.275  0.00  0.00    -0.168 A 
ATOM      5  C   UNL     1      51.519  18.584  16.125  0.00  0.00    -0.029 A 
ATOM      6  C   UNL     1      52.282  19.616  15.742  0.00  0.00    +0.222 A 
ATOM      7  O   UNL     1      52.050  20.681  16.530  0.00  0.00    -0.187 OA
ATOM      8  C   UNL     1      51.125  20.394  17.468  0.00  0.00    +0.092 A 
ATOM      9  C   UNL     1      50.550  21.137  18.499  0.00  0.00    +0.025 A 
ATOM     10  C   UNL     1      49.614  20.578  19.315  0.00  0.00    +0.100 A 
ATOM     11  C   UNL     1      49.210  19.244  19.135  0.00  0.00    -0.209 A 
ENDROOT
BRANCH   3   2
ATOM      1  C   UNL     1      50.278  16.177  18.400  0.00  0.00    +0.243 C 
ATOM      2  O   UNL     1      49.394  17.191  17.918  0.00  0.00    -0.320 OA
ENDBRANCH   3   2
BRANCH  11  12
ATOM     12  C   UNL     1      48.202  18.656  20.020  0.00  0.00    +0.392 C 
ATOM     13  O   UNL     1      48.542  17.919  20.922  0.00  0.00    -0.399 OA
BRANCH  12  14
ATOM     14  C   UNL     1      46.742  18.965  19.810  0.00  0.00    +0.007 C 
BRANCH  14  15
ATOM     15  C   UNL     1      46.184  18.057  18.744  0.00  0.00    +0.426 C 
ATOM     16  O   UNL     1      45.965  18.491  17.633  0.00  0.00    -0.412 OA
BRANCH  15  17
ATOM     17  C   UNL     1      45.904  16.646  19.052  0.00  0.00    -0.169 A 
ATOM     18  C   UNL     1      46.272  15.643  18.148  0.00  0.00    +0.054 A 
ATOM     19  C   UNL     1      46.012  14.323  18.447  0.00  0.00    -0.000 A 
ATOM     20  C   UNL     1      45.379  13.989  19.632  0.00  0.00    +0.041 A 
ATOM     21  C   UNL     1      45.007  14.975  20.528  0.00  0.00    +0.001 A 
ATOM     22  C   UNL     1      45.265  16.300  20.247  0.00  0.00    +0.075 A 
ENDBRANCH  15  17
ENDBRANCH  14  15
ENDBRANCH  12  14
ENDBRANCH  11  12
TORSDOF 5
ENDMDL
