MODEL 1
REMARK VINA RESULT:      -6.0      0.000      0.000
REMARK  Name = ZINC95486329
REMARK  7 active torsions:
REMARK  status: ('A' for Active; 'I' for Inactive)
REMARK    1  A    between atoms: C1_1  and  C2_2
REMARK    2  A    between atoms: C5_6  and  C7_9
REMARK    3  A    between atoms: C8_10  and  O6_28
REMARK    4  A    between atoms: C12_14  and  O3_15
REMARK    5  A    between atoms: O3_15  and  C13_16
REMARK    6  A    between atoms: C16_20  and  C17_22
REMARK    7  A    between atoms: O6_28  and  C23_29
REMARK                            x       y       z     vdW  Elec       q    Type
REMARK                         _______ _______ _______ _____ _____    ______ ____
ROOT
ATOM      6  C   UNL     1      48.869  18.563  18.419  0.00  0.00    -0.091 A 
ATOM      7  C   UNL     1      47.976  17.758  17.698  0.00  0.00    +0.222 A 
ATOM     10  C   UNL     1      46.618  18.017  17.728  0.00  0.00    -0.090 A 
ATOM     11  C   UNL     1      46.124  19.078  18.474  0.00  0.00    +0.209 A 
ATOM     12  C   UNL     1      47.015  19.889  19.201  0.00  0.00    -0.282 A 
ATOM     13  C   UNL     1      46.464  21.009  19.984  0.00  0.00    +0.425 A 
ATOM     14  C   UNL     1      45.061  21.197  19.954  0.00  0.00    -0.143 A 
ATOM     15  C   UNL     1      44.288  20.355  19.218  0.00  0.00    +0.203 A 
ATOM     22  O   UNL     1      47.189  21.746  20.632  0.00  0.00    -0.453 OA
ATOM     23  O   UNL     1      44.800  19.338  18.508  0.00  0.00    -0.218 OA
ATOM     24  C   UNL     1      48.389  19.628  19.177  0.00  0.00    +0.242 A 
ENDROOT
BRANCH   6   5
ATOM      1  C   UNL     1      53.285  15.567  20.162  0.00  0.00    +0.122 C 
ATOM      2  C   UNL     1      53.494  16.672  19.158  0.00  0.00    +0.097 C 
ATOM      3  C   UNL     1      52.451  17.394  18.731  0.00  0.00    -0.074 C 
ATOM      4  C   UNL     1      51.039  17.243  19.145  0.00  0.00    +0.402 C 
ATOM      5  C   UNL     1      50.325  18.276  18.380  0.00  0.00    -0.274 C 
ATOM     27  C   UNL     1      51.257  18.917  17.632  0.00  0.00    +0.359 C 
ATOM     28  O   UNL     1      50.573  16.444  19.940  0.00  0.00    -0.428 OA
ATOM     29  O   UNL     1      52.481  18.415  17.838  0.00  0.00    -0.217 OA
ENDBRANCH   6   5
BRANCH  15  16
ATOM     16  C   UNL     1      42.826  20.568  19.200  0.00  0.00    -0.073 A 
ATOM     17  C   UNL     1      42.299  21.782  18.752  0.00  0.00    +0.056 A 
ATOM     18  C   UNL     1      40.933  21.972  18.738  0.00  0.00    +0.014 A 
ATOM     19  C   UNL     1      40.086  20.965  19.165  0.00  0.00    +0.037 A 
ATOM     20  C   UNL     1      40.601  19.761  19.610  0.00  0.00    +0.009 A 
ATOM     21  C   UNL     1      41.965  19.554  19.625  0.00  0.00    +0.054 A 
ENDBRANCH  15  16
BRANCH   7   8
ATOM      8  O   UNL     1      48.448  16.718  16.966  0.00  0.00    -0.294 OA
ATOM      9  C   UNL     1      48.104  15.404  17.408  0.00  0.00    +0.254 C 
ENDBRANCH   7   8
BRANCH  24  25
ATOM     25  O   UNL     1      49.246  20.409  19.883  0.00  0.00    -0.313 OA
ATOM     26  C   UNL     1      49.689  19.908  21.145  0.00  0.00    +0.248 C 
ENDBRANCH  24  25
TORSDOF 4
ENDMDL
MODEL 2
REMARK VINA RESULT:      -5.7      2.637      7.384
REMARK  Name = ZINC95486329
REMARK  7 active torsions:
REMARK  status: ('A' for Active; 'I' for Inactive)
REMARK    1  A    between atoms: C1_1  and  C2_2
REMARK    2  A    between atoms: C5_6  and  C7_9
REMARK    3  A    between atoms: C8_10  and  O6_28
REMARK    4  A    between atoms: C12_14  and  O3_15
REMARK    5  A    between atoms: O3_15  and  C13_16
REMARK    6  A    between atoms: C16_20  and  C17_22
REMARK    7  A    between atoms: O6_28  and  C23_29
REMARK                            x       y       z     vdW  Elec       q    Type
REMARK                         _______ _______ _______ _____ _____    ______ ____
ROOT
ATOM      6  C   UNL     1      46.171  18.942  19.919  0.00  0.00    -0.091 A 
ATOM      7  C   UNL     1      45.114  18.054  20.162  0.00  0.00    +0.222 A 
ATOM     10  C   UNL     1      45.080  16.817  19.545  0.00  0.00    -0.090 A 
ATOM     11  C   UNL     1      46.095  16.441  18.676  0.00  0.00    +0.209 A 
ATOM     12  C   UNL     1      47.159  17.328  18.427  0.00  0.00    -0.282 A 
ATOM     13  C   UNL     1      48.223  16.904  17.501  0.00  0.00    +0.425 A 
ATOM     14  C   UNL     1      48.105  15.619  16.916  0.00  0.00    -0.143 A 
ATOM     15  C   UNL     1      47.035  14.839  17.224  0.00  0.00    +0.203 A 
ATOM     22  O   UNL     1      49.171  17.630  17.248  0.00  0.00    -0.453 OA
ATOM     23  O   UNL     1      46.071  15.236  18.070  0.00  0.00    -0.218 OA
ATOM     24  C   UNL     1      47.194  18.582  19.045  0.00  0.00    +0.242 A 
ENDROOT
BRANCH   6   5
ATOM      1  C   UNL     1      45.075  24.447  19.847  0.00  0.00    +0.122 C 
ATOM      2  C   UNL     1      45.714  23.839  21.069  0.00  0.00    +0.097 C 
ATOM      3  C   UNL     1      45.980  22.527  21.103  0.00  0.00    -0.074 C 
ATOM      4  C   UNL     1      45.718  21.542  20.031  0.00  0.00    +0.402 C 
ATOM      5  C   UNL     1      46.197  20.267  20.587  0.00  0.00    -0.274 C 
ATOM     27  C   UNL     1      46.668  20.540  21.829  0.00  0.00    +0.359 C 
ATOM     28  O   UNL     1      45.218  21.741  18.937  0.00  0.00    -0.428 OA
ATOM     29  O   UNL     1      46.549  21.840  22.124  0.00  0.00    -0.217 OA
ENDBRANCH   6   5
BRANCH  15  16
ATOM     16  C   UNL     1      46.929  13.502  16.603  0.00  0.00    -0.073 A 
ATOM     17  C   UNL     1      46.007  12.574  17.092  0.00  0.00    +0.056 A 
ATOM     18  C   UNL     1      45.914  11.328  16.507  0.00  0.00    +0.014 A 
ATOM     19  C   UNL     1      46.730  10.998  15.439  0.00  0.00    +0.037 A 
ATOM     20  C   UNL     1      47.645  11.913  14.951  0.00  0.00    +0.009 A 
ATOM     21  C   UNL     1      47.745  13.165  15.522  0.00  0.00    +0.054 A 
ENDBRANCH  15  16
BRANCH   7   8
ATOM      8  O   UNL     1      44.115  18.412  21.009  0.00  0.00    -0.294 OA
ATOM      9  C   UNL     1      42.909  18.899  20.421  0.00  0.00    +0.254 C 
ENDBRANCH   7   8
BRANCH  24  25
ATOM     25  O   UNL     1      48.219  19.438  18.800  0.00  0.00    -0.313 OA
ATOM     26  C   UNL     1      49.287  19.458  19.748  0.00  0.00    +0.248 C 
ENDBRANCH  24  25
TORSDOF 4
ENDMDL
MODEL 3
REMARK VINA RESULT:      -5.6      2.970      4.937
REMARK  Name = ZINC95486329
REMARK  7 active torsions:
REMARK  status: ('A' for Active; 'I' for Inactive)
REMARK    1  A    between atoms: C1_1  and  C2_2
REMARK    2  A    between atoms: C5_6  and  C7_9
REMARK    3  A    between atoms: C8_10  and  O6_28
REMARK    4  A    between atoms: C12_14  and  O3_15
REMARK    5  A    between atoms: O3_15  and  C13_16
REMARK    6  A    between atoms: C16_20  and  C17_22
REMARK    7  A    between atoms: O6_28  and  C23_29
REMARK                            x       y       z     vdW  Elec       q    Type
REMARK                         _______ _______ _______ _____ _____    ______ ____
ROOT
ATOM      6  C   UNL     1      49.714  15.208  17.266  0.00  0.00    -0.091 A 
ATOM      7  C   UNL     1      50.202  16.511  17.099  0.00  0.00    +0.222 A 
ATOM     10  C   UNL     1      49.412  17.603  17.410  0.00  0.00    -0.090 A 
ATOM     11  C   UNL     1      48.124  17.418  17.892  0.00  0.00    +0.209 A 
ATOM     12  C   UNL     1      47.626  16.112  18.062  0.00  0.00    -0.282 A 
ATOM     13  C   UNL     1      46.256  15.945  18.575  0.00  0.00    +0.425 A 
ATOM     14  C   UNL     1      45.521  17.120  18.867  0.00  0.00    -0.143 A 
ATOM     15  C   UNL     1      46.095  18.336  18.668  0.00  0.00    +0.203 A 
ATOM     22  O   UNL     1      45.773  14.837  18.743  0.00  0.00    -0.453 OA
ATOM     23  O   UNL     1      47.345  18.477  18.200  0.00  0.00    -0.218 OA
ATOM     24  C   UNL     1      48.421  15.006  17.744  0.00  0.00    +0.242 A 
ENDROOT
BRANCH   6   5
ATOM      1  C   UNL     1      51.096  11.036  13.774  0.00  0.00    +0.122 C 
ATOM      2  C   UNL     1      51.871  11.212  15.055  0.00  0.00    +0.097 C 
ATOM      3  C   UNL     1      51.555  12.203  15.897  0.00  0.00    -0.074 C 
ATOM      4  C   UNL     1      50.477  13.202  15.726  0.00  0.00    +0.402 C 
ATOM      5  C   UNL     1      50.571  14.044  16.929  0.00  0.00    -0.274 C 
ATOM     27  C   UNL     1      51.593  13.548  17.670  0.00  0.00    +0.359 C 
ATOM     28  O   UNL     1      49.691  13.304  14.800  0.00  0.00    -0.428 OA
ATOM     29  O   UNL     1      52.155  12.486  17.080  0.00  0.00    -0.217 OA
ENDBRANCH   6   5
BRANCH  15  16
ATOM     16  C   UNL     1      45.312  19.550  18.978  0.00  0.00    -0.073 A 
ATOM     17  C   UNL     1      43.968  19.443  19.341  0.00  0.00    +0.056 A 
ATOM     18  C   UNL     1      43.244  20.581  19.629  0.00  0.00    +0.014 A 
ATOM     19  C   UNL     1      43.846  21.825  19.561  0.00  0.00    +0.037 A 
ATOM     20  C   UNL     1      45.177  21.937  19.202  0.00  0.00    +0.009 A 
ATOM     21  C   UNL     1      45.915  20.807  18.916  0.00  0.00    +0.054 A 
ENDBRANCH  15  16
BRANCH   7   8
ATOM      8  O   UNL     1      51.461  16.703  16.628  0.00  0.00    -0.294 OA
ATOM      9  C   UNL     1      51.788  18.015  16.168  0.00  0.00    +0.254 C 
ENDBRANCH   7   8
BRANCH  24  25
ATOM     25  O   UNL     1      47.938  13.748  17.903  0.00  0.00    -0.313 OA
ATOM     26  C   UNL     1      48.321  13.052  19.091  0.00  0.00    +0.248 C 
ENDBRANCH  24  25
TORSDOF 4
ENDMDL
MODEL 4
REMARK VINA RESULT:      -5.6      3.770      5.403
REMARK  Name = ZINC95486329
REMARK  7 active torsions:
REMARK  status: ('A' for Active; 'I' for Inactive)
REMARK    1  A    between atoms: C1_1  and  C2_2
REMARK    2  A    between atoms: C5_6  and  C7_9
REMARK    3  A    between atoms: C8_10  and  O6_28
REMARK    4  A    between atoms: C12_14  and  O3_15
REMARK    5  A    between atoms: O3_15  and  C13_16
REMARK    6  A    between atoms: C16_20  and  C17_22
REMARK    7  A    between atoms: O6_28  and  C23_29
REMARK                            x       y       z     vdW  Elec       q    Type
REMARK                         _______ _______ _______ _____ _____    ______ ____
ROOT
ATOM      6  C   UNL     1      48.635  13.469  16.663  0.00  0.00    -0.091 A 
ATOM      7  C   UNL     1      47.461  12.768  16.970  0.00  0.00    +0.222 A 
ATOM     10  C   UNL     1      46.481  13.350  17.754  0.00  0.00    -0.090 A 
ATOM     11  C   UNL     1      46.652  14.636  18.246  0.00  0.00    +0.209 A 
ATOM     12  C   UNL     1      47.828  15.345  17.943  0.00  0.00    -0.282 A 
ATOM     13  C   UNL     1      47.984  16.709  18.478  0.00  0.00    +0.425 A 
ATOM     14  C   UNL     1      46.929  17.222  19.271  0.00  0.00    -0.143 A 
ATOM     15  C   UNL     1      45.832  16.454  19.505  0.00  0.00    +0.203 A 
ATOM     22  O   UNL     1      48.983  17.371  18.246  0.00  0.00    -0.453 OA
ATOM     23  O   UNL     1      45.701  15.212  19.012  0.00  0.00    -0.218 OA
ATOM     24  C   UNL     1      48.824  14.759  17.154  0.00  0.00    +0.242 A 
ENDROOT
BRANCH   6   5
ATOM      1  C   UNL     1      53.228  10.277  16.192  0.00  0.00    +0.122 C 
ATOM      2  C   UNL     1      52.614  10.871  14.951  0.00  0.00    +0.097 C 
ATOM      3  C   UNL     1      51.518  11.633  15.046  0.00  0.00    -0.074 C 
ATOM      4  C   UNL     1      50.792  11.992  16.284  0.00  0.00    +0.402 C 
ATOM      5  C   UNL     1      49.680  12.835  15.820  0.00  0.00    -0.274 C 
ATOM     27  C   UNL     1      49.795  12.920  14.472  0.00  0.00    +0.359 C 
ATOM     28  O   UNL     1      51.057  11.664  17.429  0.00  0.00    -0.428 OA
ATOM     29  O   UNL     1      50.855  12.235  14.027  0.00  0.00    -0.217 OA
ENDBRANCH   6   5
BRANCH  15  16
ATOM     16  C   UNL     1      44.742  17.007  20.335  0.00  0.00    -0.073 A 
ATOM     17  C   UNL     1      44.093  18.182  19.948  0.00  0.00    +0.056 A 
ATOM     18  C   UNL     1      43.076  18.692  20.728  0.00  0.00    +0.014 A 
ATOM     19  C   UNL     1      42.698  18.043  21.889  0.00  0.00    +0.037 A 
ATOM     20  C   UNL     1      43.337  16.879  22.278  0.00  0.00    +0.009 A 
ATOM     21  C   UNL     1      44.352  16.354  21.505  0.00  0.00    +0.054 A 
ENDBRANCH  15  16
BRANCH   7   8
ATOM      8  O   UNL     1      47.284  11.509  16.494  0.00  0.00    -0.294 OA
ATOM      9  C   UNL     1      47.469  10.435  17.417  0.00  0.00    +0.254 C 
ENDBRANCH   7   8
BRANCH  24  25
ATOM     25  O   UNL     1      49.961  15.442  16.866  0.00  0.00    -0.313 OA
ATOM     26  C   UNL     1      51.089  15.210  17.711  0.00  0.00    +0.248 C 
ENDBRANCH  24  25
TORSDOF 4
ENDMDL
MODEL 5
REMARK VINA RESULT:      -5.6      2.756      4.683
REMARK  Name = ZINC95486329
REMARK  7 active torsions:
REMARK  status: ('A' for Active; 'I' for Inactive)
REMARK    1  A    between atoms: C1_1  and  C2_2
REMARK    2  A    between atoms: C5_6  and  C7_9
REMARK    3  A    between atoms: C8_10  and  O6_28
REMARK    4  A    between atoms: C12_14  and  O3_15
REMARK    5  A    between atoms: O3_15  and  C13_16
REMARK    6  A    between atoms: C16_20  and  C17_22
REMARK    7  A    between atoms: O6_28  and  C23_29
REMARK                            x       y       z     vdW  Elec       q    Type
REMARK                         _______ _______ _______ _____ _____    ______ ____
ROOT
ATOM      6  C   UNL     1      49.807  15.284  17.198  0.00  0.00    -0.091 A 
ATOM      7  C   UNL     1      50.318  16.587  17.121  0.00  0.00    +0.222 A 
ATOM     10  C   UNL     1      49.529  17.672  17.458  0.00  0.00    -0.090 A 
ATOM     11  C   UNL     1      48.220  17.481  17.877  0.00  0.00    +0.209 A 
ATOM     12  C   UNL     1      47.699  16.177  17.956  0.00  0.00    -0.282 A 
ATOM     13  C   UNL     1      46.307  16.002  18.403  0.00  0.00    +0.425 A 
ATOM     14  C   UNL     1      45.576  17.171  18.728  0.00  0.00    -0.143 A 
ATOM     15  C   UNL     1      46.173  18.387  18.617  0.00  0.00    +0.203 A 
ATOM     22  O   UNL     1      45.803  14.894  18.492  0.00  0.00    -0.453 OA
ATOM     23  O   UNL     1      47.443  18.534  18.209  0.00  0.00    -0.218 OA
ATOM     24  C   UNL     1      48.492  15.077  17.611  0.00  0.00    +0.242 A 
ENDROOT
BRANCH   6   5
ATOM      1  C   UNL     1      53.084  10.990  18.721  0.00  0.00    +0.122 C 
ATOM      2  C   UNL     1      52.842  11.247  17.256  0.00  0.00    +0.097 C 
ATOM      3  C   UNL     1      52.061  12.266  16.877  0.00  0.00    -0.074 C 
ATOM      4  C   UNL     1      51.370  13.231  17.760  0.00  0.00    +0.402 C 
ATOM      5  C   UNL     1      50.661  14.127  16.834  0.00  0.00    -0.274 C 
ATOM     27  C   UNL     1      50.942  13.689  15.581  0.00  0.00    +0.359 C 
ATOM     28  O   UNL     1      51.386  13.274  18.979  0.00  0.00    -0.428 OA
ATOM     29  O   UNL     1      51.751  12.623  15.605  0.00  0.00    -0.217 OA
ENDBRANCH   6   5
BRANCH  15  16
ATOM     16  C   UNL     1      45.394  19.595  18.960  0.00  0.00    -0.073 A 
ATOM     17  C   UNL     1      44.056  19.480  19.346  0.00  0.00    +0.056 A 
ATOM     18  C   UNL     1      43.336  20.612  19.665  0.00  0.00    +0.014 A 
ATOM     19  C   UNL     1      43.934  21.858  19.604  0.00  0.00    +0.037 A 
ATOM     20  C   UNL     1      45.258  21.978  19.223  0.00  0.00    +0.009 A 
ATOM     21  C   UNL     1      45.993  20.855  18.907  0.00  0.00    +0.054 A 
ENDBRANCH  15  16
BRANCH   7   8
ATOM      8  O   UNL     1      51.597  16.785  16.712  0.00  0.00    -0.294 OA
ATOM      9  C   UNL     1      51.858  17.961  15.945  0.00  0.00    +0.254 C 
ENDBRANCH   7   8
BRANCH  24  25
ATOM     25  O   UNL     1      47.987  13.819  17.683  0.00  0.00    -0.313 OA
ATOM     26  C   UNL     1      47.522  13.237  16.465  0.00  0.00    +0.248 C 
ENDBRANCH  24  25
TORSDOF 4
ENDMDL
MODEL 6
REMARK VINA RESULT:      -5.6      3.488      5.717
REMARK  Name = ZINC95486329
REMARK  7 active torsions:
REMARK  status: ('A' for Active; 'I' for Inactive)
REMARK    1  A    between atoms: C1_1  and  C2_2
REMARK    2  A    between atoms: C5_6  and  C7_9
REMARK    3  A    between atoms: C8_10  and  O6_28
REMARK    4  A    between atoms: C12_14  and  O3_15
REMARK    5  A    between atoms: O3_15  and  C13_16
REMARK    6  A    between atoms: C16_20  and  C17_22
REMARK    7  A    between atoms: O6_28  and  C23_29
REMARK                            x       y       z     vdW  Elec       q    Type
REMARK                         _______ _______ _______ _____ _____    ______ ____
ROOT
ATOM      6  C   UNL     1      48.833  13.707  16.469  0.00  0.00    -0.091 A 
ATOM      7  C   UNL     1      47.433  13.646  16.472  0.00  0.00    +0.222 A 
ATOM     10  C   UNL     1      46.683  14.737  16.874  0.00  0.00    -0.090 A 
ATOM     11  C   UNL     1      47.312  15.905  17.280  0.00  0.00    +0.209 A 
ATOM     12  C   UNL     1      48.718  15.973  17.281  0.00  0.00    -0.282 A 
ATOM     13  C   UNL     1      49.360  17.226  17.716  0.00  0.00    +0.425 A 
ATOM     14  C   UNL     1      48.512  18.290  18.110  0.00  0.00    -0.143 A 
ATOM     15  C   UNL     1      47.164  18.121  18.072  0.00  0.00    +0.203 A 
ATOM     22  O   UNL     1      50.574  17.342  17.736  0.00  0.00    -0.453 OA
ATOM     23  O   UNL     1      46.590  16.975  17.673  0.00  0.00    -0.218 OA
ATOM     24  C   UNL     1      49.480  14.871  16.880  0.00  0.00    +0.242 A 
ENDROOT
BRANCH   6   5
ATOM      1  C   UNL     1      51.409  10.806  12.413  0.00  0.00    +0.122 C 
ATOM      2  C   UNL     1      51.431  10.277  13.824  0.00  0.00    +0.097 C 
ATOM      3  C   UNL     1      50.823  10.957  14.803  0.00  0.00    -0.074 C 
ATOM      4  C   UNL     1      50.085  12.233  14.670  0.00  0.00    +0.402 C 
ATOM      5  C   UNL     1      49.628  12.530  16.036  0.00  0.00    -0.274 C 
ATOM     27  C   UNL     1      50.074  11.519  16.822  0.00  0.00    +0.359 C 
ATOM     28  O   UNL     1      49.899  12.888  13.658  0.00  0.00    -0.428 OA
ATOM     29  O   UNL     1      50.756  10.611  16.113  0.00  0.00    -0.217 OA
ENDBRANCH   6   5
BRANCH  15  16
ATOM     16  C   UNL     1      46.296  19.243  18.487  0.00  0.00    -0.073 A 
ATOM     17  C   UNL     1      46.862  20.446  18.914  0.00  0.00    +0.056 A 
ATOM     18  C   UNL     1      46.046  21.489  19.300  0.00  0.00    +0.014 A 
ATOM     19  C   UNL     1      44.670  21.345  19.264  0.00  0.00    +0.037 A 
ATOM     20  C   UNL     1      44.103  20.155  18.842  0.00  0.00    +0.009 A 
ATOM     21  C   UNL     1      44.907  19.106  18.448  0.00  0.00    +0.054 A 
ENDBRANCH  15  16
BRANCH   7   8
ATOM      8  O   UNL     1      46.808  12.507  16.078  0.00  0.00    -0.294 OA
ATOM      9  C   UNL     1      45.853  11.946  16.980  0.00  0.00    +0.254 C 
ENDBRANCH   7   8
BRANCH  24  25
ATOM     25  O   UNL     1      50.835  14.936  16.885  0.00  0.00    -0.313 OA
ATOM     26  C   UNL     1      51.504  14.423  18.038  0.00  0.00    +0.248 C 
ENDBRANCH  24  25
TORSDOF 4
ENDMDL
MODEL 7
REMARK VINA RESULT:      -5.5      4.550      7.193
REMARK  Name = ZINC95486329
REMARK  7 active torsions:
REMARK  status: ('A' for Active; 'I' for Inactive)
REMARK    1  A    between atoms: C1_1  and  C2_2
REMARK    2  A    between atoms: C5_6  and  C7_9
REMARK    3  A    between atoms: C8_10  and  O6_28
REMARK    4  A    between atoms: C12_14  and  O3_15
REMARK    5  A    between atoms: O3_15  and  C13_16
REMARK    6  A    between atoms: C16_20  and  C17_22
REMARK    7  A    between atoms: O6_28  and  C23_29
REMARK                            x       y       z     vdW  Elec       q    Type
REMARK                         _______ _______ _______ _____ _____    ______ ____
ROOT
ATOM      6  C   UNL     1      49.420  12.955  16.063  0.00  0.00    -0.091 A 
ATOM      7  C   UNL     1      49.936  14.163  16.551  0.00  0.00    +0.222 A 
ATOM     10  C   UNL     1      49.205  14.932  17.439  0.00  0.00    -0.090 A 
ATOM     11  C   UNL     1      47.949  14.513  17.855  0.00  0.00    +0.209 A 
ATOM     12  C   UNL     1      47.424  13.302  17.368  0.00  0.00    -0.282 A 
ATOM     13  C   UNL     1      46.089  12.881  17.827  0.00  0.00    +0.425 A 
ATOM     14  C   UNL     1      45.414  13.732  18.737  0.00  0.00    -0.143 A 
ATOM     15  C   UNL     1      46.010  14.882  19.146  0.00  0.00    +0.203 A 
ATOM     22  O   UNL     1      45.584  11.839  17.439  0.00  0.00    -0.453 OA
ATOM     23  O   UNL     1      47.228  15.256  18.721  0.00  0.00    -0.218 OA
ATOM     24  C   UNL     1      48.158  12.524  16.467  0.00  0.00    +0.242 A 
ENDROOT
BRANCH   6   5
ATOM      1  C   UNL     1      51.103  11.862  10.821  0.00  0.00    +0.122 C 
ATOM      2  C   UNL     1      51.604  10.998  11.950  0.00  0.00    +0.097 C 
ATOM      3  C   UNL     1      51.213  11.247  13.206  0.00  0.00    -0.074 C 
ATOM      4  C   UNL     1      50.296  12.318  13.654  0.00  0.00    +0.402 C 
ATOM      5  C   UNL     1      50.214  12.138  15.111  0.00  0.00    -0.274 C 
ATOM     27  C   UNL     1      51.004  11.079  15.415  0.00  0.00    +0.359 C 
ATOM     28  O   UNL     1      49.737  13.159  12.970  0.00  0.00    -0.428 OA
ATOM     29  O   UNL     1      51.574  10.562  14.320  0.00  0.00    -0.217 OA
ENDBRANCH   6   5
BRANCH  15  16
ATOM     16  C   UNL     1      45.290  15.757  20.094  0.00  0.00    -0.073 A 
ATOM     17  C   UNL     1      44.929  17.052  19.718  0.00  0.00    +0.056 A 
ATOM     18  C   UNL     1      44.256  17.862  20.608  0.00  0.00    +0.014 A 
ATOM     19  C   UNL     1      43.939  17.395  21.871  0.00  0.00    +0.037 A 
ATOM     20  C   UNL     1      44.295  16.113  22.250  0.00  0.00    +0.009 A 
ATOM     21  C   UNL     1      44.962  15.289  21.368  0.00  0.00    +0.054 A 
ENDBRANCH  15  16
BRANCH   7   8
ATOM      8  O   UNL     1      51.163  14.582  16.150  0.00  0.00    -0.294 OA
ATOM      9  C   UNL     1      51.579  15.878  16.582  0.00  0.00    +0.254 C 
ENDBRANCH   7   8
BRANCH  24  25
ATOM     25  O   UNL     1      47.649  11.358  15.995  0.00  0.00    -0.313 OA
ATOM     26  C   UNL     1      47.012  11.399  14.717  0.00  0.00    +0.248 C 
ENDBRANCH  24  25
TORSDOF 4
ENDMDL
MODEL 8
REMARK VINA RESULT:      -5.5      2.818      4.269
REMARK  Name = ZINC95486329
REMARK  7 active torsions:
REMARK  status: ('A' for Active; 'I' for Inactive)
REMARK    1  A    between atoms: C1_1  and  C2_2
REMARK    2  A    between atoms: C5_6  and  C7_9
REMARK    3  A    between atoms: C8_10  and  O6_28
REMARK    4  A    between atoms: C12_14  and  O3_15
REMARK    5  A    between atoms: O3_15  and  C13_16
REMARK    6  A    between atoms: C16_20  and  C17_22
REMARK    7  A    between atoms: O6_28  and  C23_29
REMARK                            x       y       z     vdW  Elec       q    Type
REMARK                         _______ _______ _______ _____ _____    ______ ____
ROOT
ATOM      6  C   UNL     1      49.276  14.838  16.897  0.00  0.00    -0.091 A 
ATOM      7  C   UNL     1      47.917  14.606  16.646  0.00  0.00    +0.222 A 
ATOM     10  C   UNL     1      46.969  15.556  16.979  0.00  0.00    -0.090 A 
ATOM     11  C   UNL     1      47.355  16.752  17.567  0.00  0.00    +0.209 A 
ATOM     12  C   UNL     1      48.718  16.992  17.824  0.00  0.00    -0.282 A 
ATOM     13  C   UNL     1      49.100  18.270  18.448  0.00  0.00    +0.425 A 
ATOM     14  C   UNL     1      48.061  19.183  18.754  0.00  0.00    -0.143 A 
ATOM     15  C   UNL     1      46.774  18.854  18.465  0.00  0.00    +0.203 A 
ATOM     22  O   UNL     1      50.267  18.533  18.692  0.00  0.00    -0.453 OA
ATOM     23  O   UNL     1      46.437  17.686  17.895  0.00  0.00    -0.218 OA
ATOM     24  C   UNL     1      49.679  16.032  17.492  0.00  0.00    +0.242 A 
ENDROOT
BRANCH   6   5
ATOM      1  C   UNL     1      52.648  10.601  18.375  0.00  0.00    +0.122 C 
ATOM      2  C   UNL     1      52.628  11.060  16.939  0.00  0.00    +0.097 C 
ATOM      3  C   UNL     1      51.828  12.068  16.570  0.00  0.00    -0.074 C 
ATOM      4  C   UNL     1      50.913  12.837  17.441  0.00  0.00    +0.402 C 
ATOM      5  C   UNL     1      50.285  13.812  16.535  0.00  0.00    -0.274 C 
ATOM     27  C   UNL     1      50.809  13.589  15.305  0.00  0.00    +0.359 C 
ATOM     28  O   UNL     1      50.722  12.696  18.637  0.00  0.00    -0.428 OA
ATOM     29  O   UNL     1      51.700  12.590  15.325  0.00  0.00    -0.217 OA
ENDBRANCH   6   5
BRANCH  15  16
ATOM     16  C   UNL     1      45.704  19.819  18.793  0.00  0.00    -0.073 A 
ATOM     17  C   UNL     1      46.027  21.131  19.147  0.00  0.00    +0.056 A 
ATOM     18  C   UNL     1      45.023  22.026  19.450  0.00  0.00    +0.014 A 
ATOM     19  C   UNL     1      43.699  21.628  19.404  0.00  0.00    +0.037 A 
ATOM     20  C   UNL     1      43.372  20.330  19.054  0.00  0.00    +0.009 A 
ATOM     21  C   UNL     1      44.366  19.425  18.742  0.00  0.00    +0.054 A 
ENDBRANCH  15  16
BRANCH   7   8
ATOM      8  O   UNL     1      47.528  13.439  16.072  0.00  0.00    -0.294 OA
ATOM      9  C   UNL     1      46.723  12.563  16.862  0.00  0.00    +0.254 C 
ENDBRANCH   7   8
BRANCH  24  25
ATOM     25  O   UNL     1      50.993  16.262  17.744  0.00  0.00    -0.313 OA
ATOM     26  C   UNL     1      51.787  16.740  16.657  0.00  0.00    +0.248 C 
ENDBRANCH  24  25
TORSDOF 4
ENDMDL
MODEL 9
REMARK VINA RESULT:      -5.4      1.640      2.993
REMARK  Name = ZINC95486329
REMARK  7 active torsions:
REMARK  status: ('A' for Active; 'I' for Inactive)
REMARK    1  A    between atoms: C1_1  and  C2_2
REMARK    2  A    between atoms: C5_6  and  C7_9
REMARK    3  A    between atoms: C8_10  and  O6_28
REMARK    4  A    between atoms: C12_14  and  O3_15
REMARK    5  A    between atoms: O3_15  and  C13_16
REMARK    6  A    between atoms: C16_20  and  C17_22
REMARK    7  A    between atoms: O6_28  and  C23_29
REMARK                            x       y       z     vdW  Elec       q    Type
REMARK                         _______ _______ _______ _____ _____    ______ ____
ROOT
ATOM      6  C   UNL     1      50.009  18.274  19.109  0.00  0.00    -0.091 A 
ATOM      7  C   UNL     1      50.002  19.671  18.995  0.00  0.00    +0.222 A 
ATOM     10  C   UNL     1      48.807  20.368  18.966  0.00  0.00    -0.090 A 
ATOM     11  C   UNL     1      47.600  19.688  19.049  0.00  0.00    +0.209 A 
ATOM     12  C   UNL     1      47.599  18.286  19.163  0.00  0.00    -0.282 A 
ATOM     13  C   UNL     1      46.304  17.590  19.250  0.00  0.00    +0.425 A 
ATOM     14  C   UNL     1      45.132  18.386  19.212  0.00  0.00    -0.143 A 
ATOM     15  C   UNL     1      45.244  19.736  19.101  0.00  0.00    +0.203 A 
ATOM     22  O   UNL     1      46.242  16.375  19.351  0.00  0.00    -0.453 OA
ATOM     23  O   UNL     1      46.430  20.360  19.023  0.00  0.00    -0.218 OA
ATOM     24  C   UNL     1      48.805  17.577  19.188  0.00  0.00    +0.242 A 
ENDROOT
BRANCH   6   5
ATOM      1  C   UNL     1      54.450  16.360  21.958  0.00  0.00    +0.122 C 
ATOM      2  C   UNL     1      54.349  16.084  20.480  0.00  0.00    +0.097 C 
ATOM      3  C   UNL     1      53.295  16.532  19.787  0.00  0.00    -0.074 C 
ATOM      4  C   UNL     1      52.154  17.313  20.313  0.00  0.00    +0.402 C 
ATOM      5  C   UNL     1      51.296  17.537  19.140  0.00  0.00    -0.274 C 
ATOM     27  C   UNL     1      51.913  16.938  18.090  0.00  0.00    +0.359 C 
ATOM     28  O   UNL     1      51.968  17.686  21.459  0.00  0.00    -0.428 OA
ATOM     29  O   UNL     1      53.064  16.365  18.460  0.00  0.00    -0.217 OA
ENDBRANCH   6   5
BRANCH  15  16
ATOM     16  C   UNL     1      44.010  20.549  19.063  0.00  0.00    -0.073 A 
ATOM     17  C   UNL     1      42.814  19.987  18.611  0.00  0.00    +0.056 A 
ATOM     18  C   UNL     1      41.667  20.752  18.579  0.00  0.00    +0.014 A 
ATOM     19  C   UNL     1      41.699  22.071  18.994  0.00  0.00    +0.037 A 
ATOM     20  C   UNL     1      42.881  22.634  19.442  0.00  0.00    +0.009 A 
ATOM     21  C   UNL     1      44.035  21.879  19.485  0.00  0.00    +0.054 A 
ENDBRANCH  15  16
BRANCH   7   8
ATOM      8  O   UNL     1      51.177  20.345  18.913  0.00  0.00    -0.294 OA
ATOM      9  C   UNL     1      51.424  21.075  17.710  0.00  0.00    +0.254 C 
ENDBRANCH   7   8
BRANCH  24  25
ATOM     25  O   UNL     1      48.802  16.224  19.293  0.00  0.00    -0.313 OA
ATOM     26  C   UNL     1      48.993  15.674  20.597  0.00  0.00    +0.248 C 
ENDBRANCH  24  25
TORSDOF 4
ENDMDL
