MODEL 1
REMARK VINA RESULT:      -5.8      0.000      0.000
REMARK  Name = ZINC14721302
REMARK  5 active torsions:
REMARK  status: ('A' for Active; 'I' for Inactive)
REMARK    1  A    between atoms: C1_1  and  N1_2
REMARK    2  A    between atoms: C6_7  and  O3_19
REMARK    3  A    between atoms: C11_13  and  O2_17
REMARK    4  A    between atoms: O2_17  and  C15_18
REMARK    5  A    between atoms: O3_19  and  C16_20
REMARK                            x       y       z     vdW  Elec       q    Type
REMARK                         _______ _______ _______ _____ _____    ______ ____
ROOT
ATOM      1  C   UNL     1      46.932  17.100  16.746  0.00  0.00    +0.332 C 
ATOM      2  N   UNL     1      46.218  16.857  18.001  0.00  0.00    -0.509 N 
ATOM      3  C   UNL     1      45.728  17.938  18.706  0.00  0.00    +0.258 A 
ATOM      4  C   UNL     1      45.920  19.227  18.224  0.00  0.00    -0.033 A 
ATOM      5  C   UNL     1      45.430  20.317  18.925  0.00  0.00    +0.130 A 
ATOM      6  C   UNL     1      44.740  20.135  20.125  0.00  0.00    -0.044 A 
ATOM      7  O   UNL     1      44.372  21.360  20.607  0.00  0.00    -0.295 OA
ATOM      8  C   UNL     1      45.197  22.310  19.906  0.00  0.00    +0.437 C 
ATOM      9  C   UNL     1      44.539  18.860  20.622  0.00  0.00    +0.216 A 
ATOM     12  O   UNL     1      45.492  21.655  18.660  0.00  0.00    -0.299 OA
ATOM     13  C   UNL     1      45.032  17.752  19.916  0.00  0.00    -0.236 A 
ATOM     14  C   UNL     1      44.831  16.389  20.425  0.00  0.00    +0.442 A 
ATOM     15  C   UNL     1      45.380  15.274  19.630  0.00  0.00    -0.175 A 
ATOM     16  C   UNL     1      45.229  13.954  20.057  0.00  0.00    +0.087 A 
ATOM     17  C   UNL     1      45.750  12.926  19.302  0.00  0.00    +0.012 A 
ATOM     18  C   UNL     1      46.428  13.199  18.123  0.00  0.00    -0.001 A 
ATOM     19  C   UNL     1      46.582  14.499  17.684  0.00  0.00    +0.069 A 
ATOM     22  O   UNL     1      44.232  16.186  21.467  0.00  0.00    -0.445 OA
ATOM     23  C   UNL     1      46.061  15.557  18.436  0.00  0.00    +0.198 A 
ENDROOT
BRANCH   9  10
ATOM     10  O   UNL     1      43.867  18.681  21.789  0.00  0.00    -0.312 OA
ATOM     11  C   UNL     1      42.458  18.919  21.770  0.00  0.00    +0.244 C 
ENDBRANCH   9  10
BRANCH  19  20
ATOM     20  O   UNL     1      47.245  14.753  16.523  0.00  0.00    -0.309 OA
ATOM     21  C   UNL     1      47.693  13.622  15.773  0.00  0.00    +0.233 C 
ENDBRANCH  19  20
TORSDOF 2
ENDMDL
MODEL 2
REMARK VINA RESULT:      -5.3      3.183      6.111
REMARK  Name = ZINC14721302
REMARK  5 active torsions:
REMARK  status: ('A' for Active; 'I' for Inactive)
REMARK    1  A    between atoms: C1_1  and  N1_2
REMARK    2  A    between atoms: C6_7  and  O3_19
REMARK    3  A    between atoms: C11_13  and  O2_17
REMARK    4  A    between atoms: O2_17  and  C15_18
REMARK    5  A    between atoms: O3_19  and  C16_20
REMARK                            x       y       z     vdW  Elec       q    Type
REMARK                         _______ _______ _______ _____ _____    ______ ____
ROOT
ATOM      1  C   UNL     1      50.706  16.698  16.777  0.00  0.00    +0.332 C 
ATOM      2  N   UNL     1      49.559  17.192  17.542  0.00  0.00    -0.509 N 
ATOM      3  C   UNL     1      48.490  16.345  17.758  0.00  0.00    +0.258 A 
ATOM      4  C   UNL     1      48.515  15.053  17.249  0.00  0.00    -0.033 A 
ATOM      5  C   UNL     1      47.447  14.195  17.462  0.00  0.00    +0.130 A 
ATOM      6  C   UNL     1      46.332  14.620  18.188  0.00  0.00    -0.044 A 
ATOM      7  O   UNL     1      45.433  13.593  18.248  0.00  0.00    -0.295 OA
ATOM      8  C   UNL     1      45.827  12.679  17.208  0.00  0.00    +0.437 C 
ATOM      9  C   UNL     1      46.289  15.904  18.703  0.00  0.00    +0.216 A 
ATOM     12  O   UNL     1      47.242  12.904  17.070  0.00  0.00    -0.299 OA
ATOM     13  C   UNL     1      47.367  16.775  18.490  0.00  0.00    -0.236 A 
ATOM     14  C   UNL     1      47.343  18.143  19.026  0.00  0.00    +0.442 A 
ATOM     15  C   UNL     1      48.512  19.002  18.760  0.00  0.00    -0.175 A 
ATOM     16  C   UNL     1      48.553  20.315  19.236  0.00  0.00    +0.087 A 
ATOM     17  C   UNL     1      49.653  21.102  18.977  0.00  0.00    +0.012 A 
ATOM     18  C   UNL     1      50.715  20.600  18.240  0.00  0.00    -0.001 A 
ATOM     19  C   UNL     1      50.692  19.303  17.766  0.00  0.00    +0.069 A 
ATOM     22  O   UNL     1      46.391  18.552  19.667  0.00  0.00    -0.445 OA
ATOM     23  C   UNL     1      49.586  18.487  18.019  0.00  0.00    +0.198 A 
ENDROOT
BRANCH   9  10
ATOM     10  O   UNL     1      45.206  16.319  19.410  0.00  0.00    -0.312 OA
ATOM     11  C   UNL     1      44.997  15.717  20.689  0.00  0.00    +0.244 C 
ENDBRANCH   9  10
BRANCH  19  20
ATOM     20  O   UNL     1      51.743  18.821  17.050  0.00  0.00    -0.309 OA
ATOM     21  C   UNL     1      52.241  19.646  15.994  0.00  0.00    +0.233 C 
ENDBRANCH  19  20
TORSDOF 2
ENDMDL
MODEL 3
REMARK VINA RESULT:      -5.3      2.965      4.287
REMARK  Name = ZINC14721302
REMARK  5 active torsions:
REMARK  status: ('A' for Active; 'I' for Inactive)
REMARK    1  A    between atoms: C1_1  and  N1_2
REMARK    2  A    between atoms: C6_7  and  O3_19
REMARK    3  A    between atoms: C11_13  and  O2_17
REMARK    4  A    between atoms: O2_17  and  C15_18
REMARK    5  A    between atoms: O3_19  and  C16_20
REMARK                            x       y       z     vdW  Elec       q    Type
REMARK                         _______ _______ _______ _____ _____    ______ ____
ROOT
ATOM      1  C   UNL     1      46.329  17.485  17.624  0.00  0.00    +0.332 C 
ATOM      2  N   UNL     1      46.673  18.658  18.430  0.00  0.00    -0.509 N 
ATOM      3  C   UNL     1      45.670  19.537  18.785  0.00  0.00    +0.258 A 
ATOM      4  C   UNL     1      44.364  19.303  18.373  0.00  0.00    -0.033 A 
ATOM      5  C   UNL     1      43.350  20.181  18.726  0.00  0.00    +0.130 A 
ATOM      6  C   UNL     1      43.629  21.311  19.496  0.00  0.00    -0.044 A 
ATOM      7  O   UNL     1      42.467  22.000  19.697  0.00  0.00    -0.295 OA
ATOM      8  C   UNL     1      41.551  21.504  18.702  0.00  0.00    +0.437 C 
ATOM      9  C   UNL     1      44.924  21.562  19.915  0.00  0.00    +0.216 A 
ATOM     12  O   UNL     1      42.014  20.166  18.447  0.00  0.00    -0.299 OA
ATOM     13  C   UNL     1      45.953  20.677  19.562  0.00  0.00    -0.236 A 
ATOM     14  C   UNL     1      47.335  20.922  19.995  0.00  0.00    +0.442 A 
ATOM     15  C   UNL     1      48.365  19.950  19.582  0.00  0.00    -0.175 A 
ATOM     16  C   UNL     1      49.699  20.125  19.954  0.00  0.00    +0.087 A 
ATOM     17  C   UNL     1      50.646  19.206  19.559  0.00  0.00    +0.012 A 
ATOM     18  C   UNL     1      50.280  18.113  18.787  0.00  0.00    -0.001 A 
ATOM     19  C   UNL     1      48.964  17.922  18.415  0.00  0.00    +0.069 A 
ATOM     22  O   UNL     1      47.621  21.896  20.670  0.00  0.00    -0.445 OA
ATOM     23  C   UNL     1      47.987  18.843  18.806  0.00  0.00    +0.198 A 
ENDROOT
BRANCH   9  10
ATOM     10  O   UNL     1      45.197  22.660  20.666  0.00  0.00    -0.312 OA
ATOM     11  C   UNL     1      44.730  22.657  22.016  0.00  0.00    +0.244 C 
ENDBRANCH   9  10
BRANCH  19  20
ATOM     20  O   UNL     1      48.618  16.843  17.662  0.00  0.00    -0.309 OA
ATOM     21  C   UNL     1      49.670  15.951  17.286  0.00  0.00    +0.233 C 
ENDBRANCH  19  20
TORSDOF 2
ENDMDL
MODEL 4
REMARK VINA RESULT:      -5.3      1.679      5.901
REMARK  Name = ZINC14721302
REMARK  5 active torsions:
REMARK  status: ('A' for Active; 'I' for Inactive)
REMARK    1  A    between atoms: C1_1  and  N1_2
REMARK    2  A    between atoms: C6_7  and  O3_19
REMARK    3  A    between atoms: C11_13  and  O2_17
REMARK    4  A    between atoms: O2_17  and  C15_18
REMARK    5  A    between atoms: O3_19  and  C16_20
REMARK                            x       y       z     vdW  Elec       q    Type
REMARK                         _______ _______ _______ _____ _____    ______ ____
ROOT
ATOM      1  C   UNL     1      45.485  18.711  18.021  0.00  0.00    +0.332 C 
ATOM      2  N   UNL     1      45.337  17.639  19.008  0.00  0.00    -0.509 N 
ATOM      3  C   UNL     1      46.068  16.480  18.844  0.00  0.00    +0.258 A 
ATOM      4  C   UNL     1      46.920  16.344  17.754  0.00  0.00    -0.033 A 
ATOM      5  C   UNL     1      47.658  15.184  17.583  0.00  0.00    +0.130 A 
ATOM      6  C   UNL     1      47.553  14.136  18.499  0.00  0.00    -0.044 A 
ATOM      7  O   UNL     1      48.375  13.121  18.098  0.00  0.00    -0.295 OA
ATOM      8  C   UNL     1      48.670  13.392  16.715  0.00  0.00    +0.437 C 
ATOM      9  C   UNL     1      46.710  14.252  19.590  0.00  0.00    +0.216 A 
ATOM     12  O   UNL     1      48.545  14.822  16.611  0.00  0.00    -0.299 OA
ATOM     13  C   UNL     1      45.961  15.424  19.769  0.00  0.00    -0.236 A 
ATOM     14  C   UNL     1      45.059  15.570  20.920  0.00  0.00    +0.442 A 
ATOM     15  C   UNL     1      44.302  16.830  21.040  0.00  0.00    -0.175 A 
ATOM     16  C   UNL     1      43.423  17.032  22.106  0.00  0.00    +0.087 A 
ATOM     17  C   UNL     1      42.724  18.216  22.201  0.00  0.00    +0.012 A 
ATOM     18  C   UNL     1      42.885  19.202  21.240  0.00  0.00    -0.001 A 
ATOM     19  C   UNL     1      43.754  19.020  20.182  0.00  0.00    +0.069 A 
ATOM     22  O   UNL     1      44.940  14.680  21.744  0.00  0.00    -0.445 OA
ATOM     23  C   UNL     1      44.473  17.826  20.067  0.00  0.00    +0.198 A 
ENDROOT
BRANCH   9  10
ATOM     10  O   UNL     1      46.607  13.234  20.484  0.00  0.00    -0.312 OA
ATOM     11  C   UNL     1      47.747  12.973  21.304  0.00  0.00    +0.244 C 
ENDBRANCH   9  10
BRANCH  19  20
ATOM     20  O   UNL     1      43.906  19.998  19.249  0.00  0.00    -0.309 OA
ATOM     21  C   UNL     1      43.176  21.209  19.454  0.00  0.00    +0.233 C 
ENDBRANCH  19  20
TORSDOF 2
ENDMDL
MODEL 5
REMARK VINA RESULT:      -5.1      3.630      5.925
REMARK  Name = ZINC14721302
REMARK  5 active torsions:
REMARK  status: ('A' for Active; 'I' for Inactive)
REMARK    1  A    between atoms: C1_1  and  N1_2
REMARK    2  A    between atoms: C6_7  and  O3_19
REMARK    3  A    between atoms: C11_13  and  O2_17
REMARK    4  A    between atoms: O2_17  and  C15_18
REMARK    5  A    between atoms: O3_19  and  C16_20
REMARK                            x       y       z     vdW  Elec       q    Type
REMARK                         _______ _______ _______ _____ _____    ______ ____
ROOT
ATOM      1  C   UNL     1      49.298  20.818  20.481  0.00  0.00    +0.332 C 
ATOM      2  N   UNL     1      49.070  19.725  19.533  0.00  0.00    -0.509 N 
ATOM      3  C   UNL     1      47.912  18.980  19.645  0.00  0.00    +0.258 A 
ATOM      4  C   UNL     1      46.994  19.270  20.646  0.00  0.00    -0.033 A 
ATOM      5  C   UNL     1      45.829  18.528  20.765  0.00  0.00    +0.130 A 
ATOM      6  C   UNL     1      45.566  17.479  19.883  0.00  0.00    -0.044 A 
ATOM      7  O   UNL     1      44.366  16.917  20.218  0.00  0.00    -0.295 OA
ATOM      8  C   UNL     1      44.096  17.365  21.560  0.00  0.00    +0.437 C 
ATOM      9  C   UNL     1      46.469  17.174  18.880  0.00  0.00    +0.216 A 
ATOM     12  O   UNL     1      44.794  18.620  21.649  0.00  0.00    -0.299 OA
ATOM     13  C   UNL     1      47.649  17.922  18.754  0.00  0.00    -0.236 A 
ATOM     14  C   UNL     1      48.623  17.616  17.698  0.00  0.00    +0.442 A 
ATOM     15  C   UNL     1      49.841  18.444  17.630  0.00  0.00    -0.175 A 
ATOM     16  C   UNL     1      50.811  18.205  16.654  0.00  0.00    +0.087 A 
ATOM     17  C   UNL     1      51.943  18.988  16.607  0.00  0.00    +0.012 A 
ATOM     18  C   UNL     1      52.126  20.008  17.529  0.00  0.00    -0.001 A 
ATOM     19  C   UNL     1      51.175  20.261  18.498  0.00  0.00    +0.069 A 
ATOM     22  O   UNL     1      48.430  16.709  16.906  0.00  0.00    -0.445 OA
ATOM     23  C   UNL     1      50.019  19.477  18.563  0.00  0.00    +0.198 A 
ENDROOT
BRANCH   9  10
ATOM     10  O   UNL     1      46.214  16.153  18.020  0.00  0.00    -0.312 OA
ATOM     11  C   UNL     1      46.192  14.834  18.566  0.00  0.00    +0.244 C 
ENDBRANCH   9  10
BRANCH  19  20
ATOM     20  O   UNL     1      51.365  21.267  19.393  0.00  0.00    -0.309 OA
ATOM     21  C   UNL     1      52.697  21.468  19.870  0.00  0.00    +0.233 C 
ENDBRANCH  19  20
TORSDOF 2
ENDMDL
MODEL 6
REMARK VINA RESULT:      -5.0      2.730      6.868
REMARK  Name = ZINC14721302
REMARK  5 active torsions:
REMARK  status: ('A' for Active; 'I' for Inactive)
REMARK    1  A    between atoms: C1_1  and  N1_2
REMARK    2  A    between atoms: C6_7  and  O3_19
REMARK    3  A    between atoms: C11_13  and  O2_17
REMARK    4  A    between atoms: O2_17  and  C15_18
REMARK    5  A    between atoms: O3_19  and  C16_20
REMARK                            x       y       z     vdW  Elec       q    Type
REMARK                         _______ _______ _______ _____ _____    ______ ____
ROOT
ATOM      1  C   UNL     1      43.888  19.681  18.435  0.00  0.00    +0.332 C 
ATOM      2  N   UNL     1      45.240  19.912  18.949  0.00  0.00    -0.509 N 
ATOM      3  C   UNL     1      46.241  19.027  18.605  0.00  0.00    +0.258 A 
ATOM      4  C   UNL     1      45.956  17.939  17.790  0.00  0.00    -0.033 A 
ATOM      5  C   UNL     1      46.956  17.045  17.439  0.00  0.00    +0.130 A 
ATOM      6  C   UNL     1      48.261  17.226  17.902  0.00  0.00    -0.044 A 
ATOM      7  O   UNL     1      49.040  16.214  17.416  0.00  0.00    -0.295 OA
ATOM      8  C   UNL     1      48.119  15.192  16.991  0.00  0.00    +0.437 C 
ATOM      9  C   UNL     1      48.564  18.303  18.715  0.00  0.00    +0.216 A 
ATOM     12  O   UNL     1      46.923  15.922  16.664  0.00  0.00    -0.299 OA
ATOM     13  C   UNL     1      47.556  19.210  19.073  0.00  0.00    -0.236 A 
ATOM     14  C   UNL     1      47.855  20.361  19.936  0.00  0.00    +0.442 A 
ATOM     15  C   UNL     1      46.743  21.271  20.272  0.00  0.00    -0.175 A 
ATOM     16  C   UNL     1      46.956  22.381  21.092  0.00  0.00    +0.087 A 
ATOM     17  C   UNL     1      45.905  23.219  21.395  0.00  0.00    +0.012 A 
ATOM     18  C   UNL     1      44.637  22.960  20.896  0.00  0.00    -0.001 A 
ATOM     19  C   UNL     1      44.412  21.869  20.080  0.00  0.00    +0.069 A 
ATOM     22  O   UNL     1      48.981  20.556  20.360  0.00  0.00    -0.445 OA
ATOM     23  C   UNL     1      45.464  21.006  19.760  0.00  0.00    +0.198 A 
ENDROOT
BRANCH   9  10
ATOM     10  O   UNL     1      49.833  18.481  19.166  0.00  0.00    -0.312 OA
ATOM     11  C   UNL     1      50.818  18.857  18.202  0.00  0.00    +0.244 C 
ENDBRANCH   9  10
BRANCH  19  20
ATOM     20  O   UNL     1      43.164  21.629  19.592  0.00  0.00    -0.309 OA
ATOM     21  C   UNL     1      42.397  22.765  19.189  0.00  0.00    +0.233 C 
ENDBRANCH  19  20
TORSDOF 2
ENDMDL
MODEL 7
REMARK VINA RESULT:      -5.0      3.550      6.090
REMARK  Name = ZINC14721302
REMARK  5 active torsions:
REMARK  status: ('A' for Active; 'I' for Inactive)
REMARK    1  A    between atoms: C1_1  and  N1_2
REMARK    2  A    between atoms: C6_7  and  O3_19
REMARK    3  A    between atoms: C11_13  and  O2_17
REMARK    4  A    between atoms: O2_17  and  C15_18
REMARK    5  A    between atoms: O3_19  and  C16_20
REMARK                            x       y       z     vdW  Elec       q    Type
REMARK                         _______ _______ _______ _____ _____    ______ ____
ROOT
ATOM      1  C   UNL     1      47.392  20.881  20.657  0.00  0.00    +0.332 C 
ATOM      2  N   UNL     1      47.572  19.593  19.984  0.00  0.00    -0.509 N 
ATOM      3  C   UNL     1      48.648  19.434  19.132  0.00  0.00    +0.258 A 
ATOM      4  C   UNL     1      49.530  20.486  18.924  0.00  0.00    -0.033 A 
ATOM      5  C   UNL     1      50.613  20.334  18.072  0.00  0.00    +0.130 A 
ATOM      6  C   UNL     1      50.828  19.124  17.410  0.00  0.00    -0.044 A 
ATOM      7  O   UNL     1      51.949  19.242  16.638  0.00  0.00    -0.295 OA
ATOM      8  C   UNL     1      52.183  20.658  16.516  0.00  0.00    +0.437 C 
ATOM      9  C   UNL     1      49.959  18.064  17.604  0.00  0.00    +0.216 A 
ATOM     12  O   UNL     1      51.600  21.206  17.712  0.00  0.00    -0.299 OA
ATOM     13  C   UNL     1      48.863  18.213  18.466  0.00  0.00    -0.236 A 
ATOM     14  C   UNL     1      47.927  17.102  18.687  0.00  0.00    +0.442 A 
ATOM     15  C   UNL     1      46.796  17.333  19.604  0.00  0.00    -0.175 A 
ATOM     16  C   UNL     1      45.866  16.322  19.856  0.00  0.00    +0.087 A 
ATOM     17  C   UNL     1      44.815  16.557  20.716  0.00  0.00    +0.012 A 
ATOM     18  C   UNL     1      44.675  17.794  21.327  0.00  0.00    -0.001 A 
ATOM     19  C   UNL     1      45.588  18.803  21.092  0.00  0.00    +0.069 A 
ATOM     22  O   UNL     1      48.080  16.028  18.130  0.00  0.00    -0.445 OA
ATOM     23  C   UNL     1      46.662  18.585  20.223  0.00  0.00    +0.198 A 
ENDROOT
BRANCH   9  10
ATOM     10  O   UNL     1      50.168  16.886  16.962  0.00  0.00    -0.312 OA
ATOM     11  C   UNL     1      51.322  16.135  17.340  0.00  0.00    +0.244 C 
ENDBRANCH   9  10
BRANCH  19  20
ATOM     20  O   UNL     1      45.442  20.010  21.702  0.00  0.00    -0.309 OA
ATOM     21  C   UNL     1      44.254  20.207  22.472  0.00  0.00    +0.233 C 
ENDBRANCH  19  20
TORSDOF 2
ENDMDL
MODEL 8
REMARK VINA RESULT:      -5.0      3.290      7.174
REMARK  Name = ZINC14721302
REMARK  5 active torsions:
REMARK  status: ('A' for Active; 'I' for Inactive)
REMARK    1  A    between atoms: C1_1  and  N1_2
REMARK    2  A    between atoms: C6_7  and  O3_19
REMARK    3  A    between atoms: C11_13  and  O2_17
REMARK    4  A    between atoms: O2_17  and  C15_18
REMARK    5  A    between atoms: O3_19  and  C16_20
REMARK                            x       y       z     vdW  Elec       q    Type
REMARK                         _______ _______ _______ _____ _____    ______ ____
ROOT
ATOM      1  C   UNL     1      51.710  17.750  17.842  0.00  0.00    +0.332 C 
ATOM      2  N   UNL     1      50.265  17.515  17.850  0.00  0.00    -0.509 N 
ATOM      3  C   UNL     1      49.788  16.298  17.406  0.00  0.00    +0.258 A 
ATOM      4  C   UNL     1      50.674  15.326  16.958  0.00  0.00    -0.033 A 
ATOM      5  C   UNL     1      50.203  14.101  16.512  0.00  0.00    +0.130 A 
ATOM      6  C   UNL     1      48.834  13.830  16.505  0.00  0.00    -0.044 A 
ATOM      7  O   UNL     1      48.642  12.566  16.021  0.00  0.00    -0.295 OA
ATOM      8  C   UNL     1      49.870  12.223  15.350  0.00  0.00    +0.437 C 
ATOM      9  C   UNL     1      47.935  14.785  16.946  0.00  0.00    +0.216 A 
ATOM     12  O   UNL     1      50.864  13.008  16.033  0.00  0.00    -0.299 OA
ATOM     13  C   UNL     1      48.406  16.026  17.399  0.00  0.00    -0.236 A 
ATOM     14  C   UNL     1      47.471  17.056  17.872  0.00  0.00    +0.442 A 
ATOM     15  C   UNL     1      48.040  18.337  18.331  0.00  0.00    -0.175 A 
ATOM     16  C   UNL     1      47.208  19.361  18.789  0.00  0.00    +0.087 A 
ATOM     17  C   UNL     1      47.758  20.551  19.212  0.00  0.00    +0.012 A 
ATOM     18  C   UNL     1      49.132  20.738  19.179  0.00  0.00    -0.001 A 
ATOM     19  C   UNL     1      49.968  19.734  18.734  0.00  0.00    +0.069 A 
ATOM     22  O   UNL     1      46.269  16.858  17.884  0.00  0.00    -0.445 OA
ATOM     23  C   UNL     1      49.431  18.518  18.300  0.00  0.00    +0.198 A 
ENDROOT
BRANCH   9  10
ATOM     10  O   UNL     1      46.603  14.522  16.941  0.00  0.00    -0.312 OA
ATOM     11  C   UNL     1      46.128  13.551  17.875  0.00  0.00    +0.244 C 
ENDBRANCH   9  10
BRANCH  19  20
ATOM     20  O   UNL     1      51.315  19.928  18.712  0.00  0.00    -0.309 OA
ATOM     21  C   UNL     1      51.794  21.195  19.167  0.00  0.00    +0.233 C 
ENDBRANCH  19  20
TORSDOF 2
ENDMDL
MODEL 9
REMARK VINA RESULT:      -5.0      3.081      4.049
REMARK  Name = ZINC14721302
REMARK  5 active torsions:
REMARK  status: ('A' for Active; 'I' for Inactive)
REMARK    1  A    between atoms: C1_1  and  N1_2
REMARK    2  A    between atoms: C6_7  and  O3_19
REMARK    3  A    between atoms: C11_13  and  O2_17
REMARK    4  A    between atoms: O2_17  and  C15_18
REMARK    5  A    between atoms: O3_19  and  C16_20
REMARK                            x       y       z     vdW  Elec       q    Type
REMARK                         _______ _______ _______ _____ _____    ______ ____
ROOT
ATOM      1  C   UNL     1      50.174  20.291  19.845  0.00  0.00    +0.332 C 
ATOM      2  N   UNL     1      48.975  19.633  19.322  0.00  0.00    -0.509 N 
ATOM      3  C   UNL     1      47.741  20.195  19.583  0.00  0.00    +0.258 A 
ATOM      4  C   UNL     1      47.654  21.360  20.334  0.00  0.00    -0.033 A 
ATOM      5  C   UNL     1      46.420  21.932  20.600  0.00  0.00    +0.130 A 
ATOM      6  C   UNL     1      45.249  21.342  20.120  0.00  0.00    -0.044 A 
ATOM      7  O   UNL     1      44.183  22.097  20.522  0.00  0.00    -0.295 OA
ATOM      8  C   UNL     1      44.681  22.921  21.593  0.00  0.00    +0.437 C 
ATOM      9  C   UNL     1      45.315  20.181  19.371  0.00  0.00    +0.216 A 
ATOM     12  O   UNL     1      46.084  23.054  21.301  0.00  0.00    -0.299 OA
ATOM     13  C   UNL     1      46.562  19.599  19.098  0.00  0.00    -0.236 A 
ATOM     14  C   UNL     1      46.656  18.365  18.305  0.00  0.00    +0.442 A 
ATOM     15  C   UNL     1      48.001  17.810  18.062  0.00  0.00    -0.175 A 
ATOM     16  C   UNL     1      48.163  16.638  17.321  0.00  0.00    +0.087 A 
ATOM     17  C   UNL     1      49.427  16.135  17.105  0.00  0.00    +0.012 A 
ATOM     18  C   UNL     1      50.537  16.783  17.626  0.00  0.00    -0.001 A 
ATOM     19  C   UNL     1      50.394  17.946  18.357  0.00  0.00    +0.069 A 
ATOM     22  O   UNL     1      45.659  17.820  17.866  0.00  0.00    -0.445 OA
ATOM     23  C   UNL     1      49.120  18.474  18.587  0.00  0.00    +0.198 A 
ENDROOT
BRANCH   9  10
ATOM     10  O   UNL     1      44.177  19.607  18.901  0.00  0.00    -0.312 OA
ATOM     11  C   UNL     1      43.291  19.038  19.867  0.00  0.00    +0.244 C 
ENDBRANCH   9  10
BRANCH  19  20
ATOM     20  O   UNL     1      51.491  18.575  18.858  0.00  0.00    -0.309 OA
ATOM     21  C   UNL     1      52.730  17.864  18.799  0.00  0.00    +0.233 C 
ENDBRANCH  19  20
TORSDOF 2
ENDMDL
