MODEL 1
REMARK VINA RESULT:      -6.1      0.000      0.000
REMARK  Name = ZINC14641747
REMARK  15 active torsions:
REMARK  status: ('A' for Active; 'I' for Inactive)
REMARK    1  A    between atoms: C1_1  and  C2_2
REMARK    2  A    between atoms: C2_2  and  C25_32
REMARK    3  A    between atoms: C3_3  and  C4_4
REMARK    4  A    between atoms: C4_4  and  C5_5
REMARK    5  A    between atoms: C6_6  and  O7_31
REMARK    6  A    between atoms: C7_7  and  C20_26
REMARK    7  A    between atoms: C10_10  and  O1_11
REMARK    8  A    between atoms: C14_16  and  O6_24
REMARK    9  A    between atoms: C15_17  and  O5_22
REMARK   10  A    between atoms: C16_18  and  O4_21
REMARK   11  A    between atoms: O5_22  and  C18_23
REMARK   12  A    between atoms: O6_24  and  C19_25
REMARK   13  A    between atoms: C20_26  and  C21_27
REMARK   14  A    between atoms: C22_28  and  C23_29
REMARK   15  A    between atoms: C22_28  and  C24_30
REMARK                            x       y       z     vdW  Elec       q    Type
REMARK                         _______ _______ _______ _____ _____    ______ ____
ROOT
ATOM      6  C   UNL     1      46.455  19.654  19.896  0.00  0.00    -0.162 A 
ATOM      7  C   UNL     1      47.752  20.156  19.899  0.00  0.00    +0.200 A 
ATOM     10  C   UNL     1      48.793  19.430  19.342  0.00  0.00    -0.137 A 
ATOM     16  C   UNL     1      48.551  18.186  18.773  0.00  0.00    +0.195 A 
ATOM     17  C   UNL     1      47.240  17.678  18.772  0.00  0.00    -0.267 A 
ATOM     18  C   UNL     1      46.991  16.358  18.168  0.00  0.00    +0.442 A 
ATOM     19  C   UNL     1      48.157  15.655  17.600  0.00  0.00    -0.179 A 
ATOM     20  C   UNL     1      48.014  14.397  17.008  0.00  0.00    +0.039 A 
ATOM     21  C   UNL     1      49.117  13.757  16.483  0.00  0.00    +0.099 A 
ATOM     24  C   UNL     1      50.373  14.365  16.545  0.00  0.00    +0.107 A 
ATOM     27  C   UNL     1      50.524  15.610  17.136  0.00  0.00    +0.103 A 
ATOM     30  C   UNL     1      49.416  16.270  17.664  0.00  0.00    +0.117 A 
ATOM     31  O   UNL     1      45.875  15.871  18.138  0.00  0.00    -0.430 OA
ATOM     32  O   UNL     1      49.568  17.485  18.234  0.00  0.00    -0.211 OA
ATOM     33  C   UNL     1      46.192  18.418  19.336  0.00  0.00    +0.220 A 
ENDROOT
BRANCH   7   8
ATOM      8  O   UNL     1      48.001  21.371  20.451  0.00  0.00    -0.479 OA
ATOM      9  H   UNL     1      47.356  22.051  20.213  0.00  0.00    +0.399 HD
ENDBRANCH   7   8
BRANCH  21  22
ATOM     22  O   UNL     1      48.982  12.533  15.905  0.00  0.00    -0.298 OA
ATOM     23  C   UNL     1      48.190  12.460  14.718  0.00  0.00    +0.249 C 
ENDBRANCH  21  22
BRANCH  24  25
ATOM     25  O   UNL     1      51.455  13.728  16.026  0.00  0.00    -0.309 OA
ATOM     26  C   UNL     1      51.674  13.860  14.620  0.00  0.00    +0.235 C 
ENDBRANCH  24  25
BRANCH  27  28
ATOM     28  O   UNL     1      51.753  16.189  17.195  0.00  0.00    -0.462 OA
ATOM     29  H   UNL     1      51.800  17.058  16.773  0.00  0.00    +0.391 HD
ENDBRANCH  27  28
BRANCH  33  34
ATOM     34  O   UNL     1      44.928  17.925  19.332  0.00  0.00    -0.467 OA
ATOM     35  H   UNL     1      44.265  18.546  19.001  0.00  0.00    +0.398 HD
ENDBRANCH  33  34
BRANCH   6   5
ATOM      5  C   UNL     1      45.335  20.459  20.505  0.00  0.00    +0.134 C 
BRANCH   5   4
ATOM      1  C   UNL     1      44.817  23.043  21.509  0.00  0.00    +0.076 C 
ATOM      2  C   UNL     1      44.769  22.785  20.025  0.00  0.00    -0.117 C 
ATOM      3  C   UNL     1      44.518  23.923  19.070  0.00  0.00    +0.072 C 
ATOM      4  C   UNL     1      44.947  21.571  19.566  0.00  0.00    -0.063 C 
ENDBRANCH   5   4
ENDBRANCH   6   5
BRANCH  10  11
ATOM     11  C   UNL     1      50.191  19.991  19.352  0.00  0.00    +0.137 C 
BRANCH  11  12
ATOM     12  C   UNL     1      50.421  20.793  18.097  0.00  0.00    -0.056 C 
ATOM     13  C   UNL     1      51.472  20.556  17.353  0.00  0.00    -0.126 C 
ATOM     14  C   UNL     1      51.702  21.357  16.097  0.00  0.00    +0.073 C 
ATOM     15  C   UNL     1      52.452  19.483  17.752  0.00  0.00    +0.077 C 
ENDBRANCH  11  12
ENDBRANCH  10  11
TORSDOF 9
ENDMDL
MODEL 2
REMARK VINA RESULT:      -5.8      1.429      7.265
REMARK  Name = ZINC14641747
REMARK  15 active torsions:
REMARK  status: ('A' for Active; 'I' for Inactive)
REMARK    1  A    between atoms: C1_1  and  C2_2
REMARK    2  A    between atoms: C2_2  and  C25_32
REMARK    3  A    between atoms: C3_3  and  C4_4
REMARK    4  A    between atoms: C4_4  and  C5_5
REMARK    5  A    between atoms: C6_6  and  O7_31
REMARK    6  A    between atoms: C7_7  and  C20_26
REMARK    7  A    between atoms: C10_10  and  O1_11
REMARK    8  A    between atoms: C14_16  and  O6_24
REMARK    9  A    between atoms: C15_17  and  O5_22
REMARK   10  A    between atoms: C16_18  and  O4_21
REMARK   11  A    between atoms: O5_22  and  C18_23
REMARK   12  A    between atoms: O6_24  and  C19_25
REMARK   13  A    between atoms: C20_26  and  C21_27
REMARK   14  A    between atoms: C22_28  and  C23_29
REMARK   15  A    between atoms: C22_28  and  C24_30
REMARK                            x       y       z     vdW  Elec       q    Type
REMARK                         _______ _______ _______ _____ _____    ______ ____
ROOT
ATOM      6  C   UNL     1      50.386  14.981  17.194  0.00  0.00    -0.162 A 
ATOM      7  C   UNL     1      51.224  16.056  17.471  0.00  0.00    +0.200 A 
ATOM     10  C   UNL     1      50.701  17.269  17.890  0.00  0.00    -0.137 A 
ATOM     16  C   UNL     1      49.329  17.426  18.038  0.00  0.00    +0.195 A 
ATOM     17  C   UNL     1      48.482  16.340  17.757  0.00  0.00    -0.267 A 
ATOM     18  C   UNL     1      47.029  16.513  17.915  0.00  0.00    +0.442 A 
ATOM     19  C   UNL     1      46.561  17.838  18.364  0.00  0.00    -0.179 A 
ATOM     20  C   UNL     1      45.198  18.092  18.541  0.00  0.00    +0.039 A 
ATOM     21  C   UNL     1      44.783  19.338  18.962  0.00  0.00    +0.099 A 
ATOM     24  C   UNL     1      45.722  20.342  19.210  0.00  0.00    +0.107 A 
ATOM     27  C   UNL     1      47.075  20.098  19.031  0.00  0.00    +0.103 A 
ATOM     30  C   UNL     1      47.509  18.842  18.613  0.00  0.00    +0.117 A 
ATOM     31  O   UNL     1      46.250  15.605  17.686  0.00  0.00    -0.430 OA
ATOM     32  O   UNL     1      48.829  18.609  18.446  0.00  0.00    -0.211 OA
ATOM     33  C   UNL     1      49.018  15.115  17.333  0.00  0.00    +0.220 A 
ENDROOT
BRANCH   7   8
ATOM      8  O   UNL     1      52.566  15.916  17.331  0.00  0.00    -0.479 OA
ATOM      9  H   UNL     1      53.080  16.319  18.044  0.00  0.00    +0.399 HD
ENDBRANCH   7   8
BRANCH  21  22
ATOM     22  O   UNL     1      43.457  19.590  19.136  0.00  0.00    -0.298 OA
ATOM     23  C   UNL     1      42.823  18.982  20.263  0.00  0.00    +0.249 C 
ENDBRANCH  21  22
BRANCH  24  25
ATOM     25  O   UNL     1      45.305  21.567  19.624  0.00  0.00    -0.309 OA
ATOM     26  C   UNL     1      45.211  21.778  21.035  0.00  0.00    +0.235 C 
ENDBRANCH  24  25
BRANCH  27  28
ATOM     28  O   UNL     1      47.979  21.086  19.271  0.00  0.00    -0.462 OA
ATOM     29  H   UNL     1      48.532  21.308  18.510  0.00  0.00    +0.391 HD
ENDBRANCH  27  28
BRANCH  33  34
ATOM     34  O   UNL     1      48.198  14.069  17.063  0.00  0.00    -0.467 OA
ATOM     35  H   UNL     1      48.207  13.377  17.739  0.00  0.00    +0.398 HD
ENDBRANCH  33  34
BRANCH   6   5
ATOM      5  C   UNL     1      50.972  13.668  16.739  0.00  0.00    +0.134 C 
BRANCH   5   4
ATOM      1  C   UNL     1      49.860  11.650  15.113  0.00  0.00    +0.076 C 
ATOM      2  C   UNL     1      50.607  12.799  14.487  0.00  0.00    -0.117 C 
ATOM      3  C   UNL     1      50.698  12.911  12.987  0.00  0.00    +0.072 C 
ATOM      4  C   UNL     1      51.178  13.700  15.247  0.00  0.00    -0.063 C 
ENDBRANCH   5   4
ENDBRANCH   6   5
BRANCH  10  11
ATOM     11  C   UNL     1      51.625  18.422  18.188  0.00  0.00    +0.137 C 
BRANCH  11  12
ATOM     12  C   UNL     1      51.717  19.318  16.979  0.00  0.00    -0.056 C 
ATOM     13  C   UNL     1      51.566  20.612  17.110  0.00  0.00    -0.126 C 
ATOM     14  C   UNL     1      51.658  21.507  15.902  0.00  0.00    +0.073 C 
ATOM     15  C   UNL     1      51.298  21.206  18.469  0.00  0.00    +0.077 C 
ENDBRANCH  11  12
ENDBRANCH  10  11
TORSDOF 9
ENDMDL
MODEL 3
REMARK VINA RESULT:      -5.7      1.731      2.167
REMARK  Name = ZINC14641747
REMARK  15 active torsions:
REMARK  status: ('A' for Active; 'I' for Inactive)
REMARK    1  A    between atoms: C1_1  and  C2_2
REMARK    2  A    between atoms: C2_2  and  C25_32
REMARK    3  A    between atoms: C3_3  and  C4_4
REMARK    4  A    between atoms: C4_4  and  C5_5
REMARK    5  A    between atoms: C6_6  and  O7_31
REMARK    6  A    between atoms: C7_7  and  C20_26
REMARK    7  A    between atoms: C10_10  and  O1_11
REMARK    8  A    between atoms: C14_16  and  O6_24
REMARK    9  A    between atoms: C15_17  and  O5_22
REMARK   10  A    between atoms: C16_18  and  O4_21
REMARK   11  A    between atoms: O5_22  and  C18_23
REMARK   12  A    between atoms: O6_24  and  C19_25
REMARK   13  A    between atoms: C20_26  and  C21_27
REMARK   14  A    between atoms: C22_28  and  C23_29
REMARK   15  A    between atoms: C22_28  and  C24_30
REMARK                            x       y       z     vdW  Elec       q    Type
REMARK                         _______ _______ _______ _____ _____    ______ ____
ROOT
ATOM      6  C   UNL     1      45.180  19.363  19.837  0.00  0.00    -0.162 A 
ATOM      7  C   UNL     1      46.274  20.161  19.522  0.00  0.00    +0.200 A 
ATOM     10  C   UNL     1      47.428  19.604  18.993  0.00  0.00    -0.137 A 
ATOM     16  C   UNL     1      47.505  18.235  18.772  0.00  0.00    +0.195 A 
ATOM     17  C   UNL     1      46.400  17.427  19.092  0.00  0.00    -0.267 A 
ATOM     18  C   UNL     1      46.489  15.976  18.856  0.00  0.00    +0.442 A 
ATOM     19  C   UNL     1      47.754  15.469  18.292  0.00  0.00    -0.179 A 
ATOM     20  C   UNL     1      47.927  14.106  18.037  0.00  0.00    +0.039 A 
ATOM     21  C   UNL     1      49.119  13.654  17.509  0.00  0.00    +0.099 A 
ATOM     24  C   UNL     1      50.148  14.556  17.233  0.00  0.00    +0.107 A 
ATOM     27  C   UNL     1      49.986  15.909  17.489  0.00  0.00    +0.103 A 
ATOM     30  C   UNL     1      48.785  16.380  18.016  0.00  0.00    +0.117 A 
ATOM     31  O   UNL     1      45.561  15.230  19.115  0.00  0.00    -0.430 OA
ATOM     32  O   UNL     1      48.631  17.700  18.258  0.00  0.00    -0.211 OA
ATOM     33  C   UNL     1      45.236  17.998  19.626  0.00  0.00    +0.220 A 
ENDROOT
BRANCH   7   8
ATOM      8  O   UNL     1      46.212  21.501  19.732  0.00  0.00    -0.479 OA
ATOM      9  H   UNL     1      45.335  21.881  19.583  0.00  0.00    +0.399 HD
ENDBRANCH   7   8
BRANCH  21  22
ATOM     22  O   UNL     1      49.291  12.328  17.258  0.00  0.00    -0.298 OA
ATOM     23  C   UNL     1      48.412  11.729  16.303  0.00  0.00    +0.249 C 
ENDBRANCH  21  22
BRANCH  24  25
ATOM     25  O   UNL     1      51.319  14.103  16.713  0.00  0.00    -0.309 OA
ATOM     26  C   UNL     1      51.364  13.891  15.300  0.00  0.00    +0.235 C 
ENDBRANCH  24  25
BRANCH  27  28
ATOM     28  O   UNL     1      50.998  16.777  17.220  0.00  0.00    -0.462 OA
ATOM     29  H   UNL     1      51.840  16.540  17.632  0.00  0.00    +0.391 HD
ENDBRANCH  27  28
BRANCH  33  34
ATOM     34  O   UNL     1      44.171  17.215  19.933  0.00  0.00    -0.467 OA
ATOM     35  H   UNL     1      44.172  16.889  20.844  0.00  0.00    +0.398 HD
ENDBRANCH  33  34
BRANCH   6   5
ATOM      5  C   UNL     1      43.934  19.986  20.410  0.00  0.00    +0.134 C 
BRANCH   5   4
ATOM      1  C   UNL     1      41.245  19.152  20.584  0.00  0.00    +0.076 C 
ATOM      2  C   UNL     1      41.708  19.969  19.406  0.00  0.00    -0.117 C 
ATOM      3  C   UNL     1      40.719  20.406  18.355  0.00  0.00    +0.072 C 
ATOM      4  C   UNL     1      42.971  20.301  19.295  0.00  0.00    -0.063 C 
ENDBRANCH   5   4
ENDBRANCH   6   5
BRANCH  10  11
ATOM     11  C   UNL     1      48.602  20.486  18.656  0.00  0.00    +0.137 C 
BRANCH  11  12
ATOM     12  C   UNL     1      49.545  20.540  19.830  0.00  0.00    -0.056 C 
ATOM     13  C   UNL     1      50.808  20.827  19.643  0.00  0.00    -0.126 C 
ATOM     14  C   UNL     1      51.751  20.882  20.817  0.00  0.00    +0.073 C 
ATOM     15  C   UNL     1      51.321  21.102  18.253  0.00  0.00    +0.077 C 
ENDBRANCH  11  12
ENDBRANCH  10  11
TORSDOF 9
ENDMDL
MODEL 4
REMARK VINA RESULT:      -5.6      2.635      5.263
REMARK  Name = ZINC14641747
REMARK  15 active torsions:
REMARK  status: ('A' for Active; 'I' for Inactive)
REMARK    1  A    between atoms: C1_1  and  C2_2
REMARK    2  A    between atoms: C2_2  and  C25_32
REMARK    3  A    between atoms: C3_3  and  C4_4
REMARK    4  A    between atoms: C4_4  and  C5_5
REMARK    5  A    between atoms: C6_6  and  O7_31
REMARK    6  A    between atoms: C7_7  and  C20_26
REMARK    7  A    between atoms: C10_10  and  O1_11
REMARK    8  A    between atoms: C14_16  and  O6_24
REMARK    9  A    between atoms: C15_17  and  O5_22
REMARK   10  A    between atoms: C16_18  and  O4_21
REMARK   11  A    between atoms: O5_22  and  C18_23
REMARK   12  A    between atoms: O6_24  and  C19_25
REMARK   13  A    between atoms: C20_26  and  C21_27
REMARK   14  A    between atoms: C22_28  and  C23_29
REMARK   15  A    between atoms: C22_28  and  C24_30
REMARK                            x       y       z     vdW  Elec       q    Type
REMARK                         _______ _______ _______ _____ _____    ______ ____
ROOT
ATOM      6  C   UNL     1      44.386  19.016  20.640  0.00  0.00    -0.162 A 
ATOM      7  C   UNL     1      44.514  17.669  20.958  0.00  0.00    +0.200 A 
ATOM     10  C   UNL     1      45.687  16.985  20.681  0.00  0.00    -0.137 A 
ATOM     16  C   UNL     1      46.753  17.641  20.078  0.00  0.00    +0.195 A 
ATOM     17  C   UNL     1      46.623  19.003  19.754  0.00  0.00    -0.267 A 
ATOM     18  C   UNL     1      47.756  19.692  19.115  0.00  0.00    +0.442 A 
ATOM     19  C   UNL     1      48.965  18.887  18.855  0.00  0.00    -0.179 A 
ATOM     20  C   UNL     1      50.088  19.459  18.251  0.00  0.00    +0.039 A 
ATOM     21  C   UNL     1      51.207  18.687  18.018  0.00  0.00    +0.099 A 
ATOM     24  C   UNL     1      51.217  17.340  18.384  0.00  0.00    +0.107 A 
ATOM     27  C   UNL     1      50.104  16.765  18.979  0.00  0.00    +0.103 A 
ATOM     30  C   UNL     1      48.969  17.534  19.226  0.00  0.00    +0.117 A 
ATOM     31  O   UNL     1      47.698  20.871  18.814  0.00  0.00    -0.430 OA
ATOM     32  O   UNL     1      47.891  16.969  19.811  0.00  0.00    -0.211 OA
ATOM     33  C   UNL     1      45.433  19.688  20.038  0.00  0.00    +0.220 A 
ENDROOT
BRANCH   7   8
ATOM      8  O   UNL     1      43.481  17.016  21.548  0.00  0.00    -0.479 OA
ATOM      9  H   UNL     1      42.616  17.221  21.166  0.00  0.00    +0.399 HD
ENDBRANCH   7   8
BRANCH  21  22
ATOM     22  O   UNL     1      52.303  19.240  17.430  0.00  0.00    -0.298 OA
ATOM     23  C   UNL     1      52.202  19.560  16.041  0.00  0.00    +0.249 C 
ENDBRANCH  21  22
BRANCH  24  25
ATOM     25  O   UNL     1      52.323  16.587  18.151  0.00  0.00    -0.309 OA
ATOM     26  C   UNL     1      53.330  16.579  19.166  0.00  0.00    +0.235 C 
ENDBRANCH  24  25
BRANCH  27  28
ATOM     28  O   UNL     1      50.125  15.450  19.327  0.00  0.00    -0.462 OA
ATOM     29  H   UNL     1      50.269  14.848  18.584  0.00  0.00    +0.391 HD
ENDBRANCH  27  28
BRANCH  33  34
ATOM     34  O   UNL     1      45.311  21.003  19.725  0.00  0.00    -0.467 OA
ATOM     35  H   UNL     1      45.406  21.598  20.482  0.00  0.00    +0.398 HD
ENDBRANCH  33  34
BRANCH   6   5
ATOM      5  C   UNL     1      43.103  19.744  20.949  0.00  0.00    +0.134 C 
BRANCH   5   4
ATOM      1  C   UNL     1      42.059  21.702  19.209  0.00  0.00    +0.076 C 
ATOM      2  C   UNL     1      41.619  20.267  19.082  0.00  0.00    -0.117 C 
ATOM      3  C   UNL     1      40.677  19.862  17.977  0.00  0.00    +0.072 C 
ATOM      4  C   UNL     1      42.056  19.371  19.932  0.00  0.00    -0.063 C 
ENDBRANCH   5   4
ENDBRANCH   6   5
BRANCH  10  11
ATOM     11  C   UNL     1      45.808  15.526  21.035  0.00  0.00    +0.137 C 
BRANCH  11  12
ATOM     12  C   UNL     1      45.228  14.688  19.925  0.00  0.00    -0.056 C 
ATOM     13  C   UNL     1      45.918  13.692  19.428  0.00  0.00    -0.126 C 
ATOM     14  C   UNL     1      45.337  12.854  18.318  0.00  0.00    +0.073 C 
ATOM     15  C   UNL     1      47.291  13.384  19.965  0.00  0.00    +0.077 C 
ENDBRANCH  11  12
ENDBRANCH  10  11
TORSDOF 9
ENDMDL
MODEL 5
REMARK VINA RESULT:      -5.5      1.546      7.446
REMARK  Name = ZINC14641747
REMARK  15 active torsions:
REMARK  status: ('A' for Active; 'I' for Inactive)
REMARK    1  A    between atoms: C1_1  and  C2_2
REMARK    2  A    between atoms: C2_2  and  C25_32
REMARK    3  A    between atoms: C3_3  and  C4_4
REMARK    4  A    between atoms: C4_4  and  C5_5
REMARK    5  A    between atoms: C6_6  and  O7_31
REMARK    6  A    between atoms: C7_7  and  C20_26
REMARK    7  A    between atoms: C10_10  and  O1_11
REMARK    8  A    between atoms: C14_16  and  O6_24
REMARK    9  A    between atoms: C15_17  and  O5_22
REMARK   10  A    between atoms: C16_18  and  O4_21
REMARK   11  A    between atoms: O5_22  and  C18_23
REMARK   12  A    between atoms: O6_24  and  C19_25
REMARK   13  A    between atoms: C20_26  and  C21_27
REMARK   14  A    between atoms: C22_28  and  C23_29
REMARK   15  A    between atoms: C22_28  and  C24_30
REMARK                            x       y       z     vdW  Elec       q    Type
REMARK                         _______ _______ _______ _____ _____    ______ ____
ROOT
ATOM      6  C   UNL     1      49.723  15.138  16.974  0.00  0.00    -0.162 A 
ATOM      7  C   UNL     1      50.674  16.124  17.216  0.00  0.00    +0.200 A 
ATOM     10  C   UNL     1      50.329  17.292  17.877  0.00  0.00    -0.137 A 
ATOM     16  C   UNL     1      49.023  17.493  18.306  0.00  0.00    +0.195 A 
ATOM     17  C   UNL     1      48.061  16.498  18.059  0.00  0.00    -0.267 A 
ATOM     18  C   UNL     1      46.679  16.718  18.516  0.00  0.00    +0.442 A 
ATOM     19  C   UNL     1      46.401  17.990  19.210  0.00  0.00    -0.179 A 
ATOM     20  C   UNL     1      45.117  18.284  19.676  0.00  0.00    +0.039 A 
ATOM     21  C   UNL     1      44.880  19.479  20.322  0.00  0.00    +0.099 A 
ATOM     24  C   UNL     1      45.919  20.392  20.508  0.00  0.00    +0.107 A 
ATOM     27  C   UNL     1      47.195  20.111  20.043  0.00  0.00    +0.103 A 
ATOM     30  C   UNL     1      47.450  18.904  19.394  0.00  0.00    +0.117 A 
ATOM     31  O   UNL     1      45.806  15.889  18.330  0.00  0.00    -0.430 OA
ATOM     32  O   UNL     1      48.695  18.632  18.948  0.00  0.00    -0.211 OA
ATOM     33  C   UNL     1      48.417  15.319  17.391  0.00  0.00    +0.220 A 
ENDROOT
BRANCH   7   8
ATOM      8  O   UNL     1      51.953  15.939  16.803  0.00  0.00    -0.479 OA
ATOM      9  H   UNL     1      52.526  16.706  16.942  0.00  0.00    +0.399 HD
ENDBRANCH   7   8
BRANCH  21  22
ATOM     22  O   UNL     1      43.631  19.769  20.779  0.00  0.00    -0.298 OA
ATOM     23  C   UNL     1      42.545  19.567  19.872  0.00  0.00    +0.249 C 
ENDBRANCH  21  22
BRANCH  24  25
ATOM     25  O   UNL     1      45.678  21.568  21.145  0.00  0.00    -0.309 OA
ATOM     26  C   UNL     1      45.191  22.650  20.347  0.00  0.00    +0.235 C 
ENDBRANCH  24  25
BRANCH  27  28
ATOM     28  O   UNL     1      48.198  21.010  20.225  0.00  0.00    -0.462 OA
ATOM     29  H   UNL     1      47.899  21.879  20.528  0.00  0.00    +0.391 HD
ENDBRANCH  27  28
BRANCH  33  34
ATOM     34  O   UNL     1      47.487  14.360  17.155  0.00  0.00    -0.467 OA
ATOM     35  H   UNL     1      47.665  13.520  17.601  0.00  0.00    +0.398 HD
ENDBRANCH  33  34
BRANCH   6   5
ATOM      5  C   UNL     1      50.116  13.874  16.254  0.00  0.00    +0.134 C 
BRANCH   5   4
ATOM      1  C   UNL     1      52.123  12.133  15.309  0.00  0.00    +0.076 C 
ATOM      2  C   UNL     1      51.805  12.192  16.781  0.00  0.00    -0.117 C 
ATOM      3  C   UNL     1      52.609  11.375  17.759  0.00  0.00    +0.072 C 
ATOM      4  C   UNL     1      50.829  12.953  17.209  0.00  0.00    -0.063 C 
ENDBRANCH   5   4
ENDBRANCH   6   5
BRANCH  10  11
ATOM     11  C   UNL     1      51.374  18.347  18.133  0.00  0.00    +0.137 C 
BRANCH  11  12
ATOM     12  C   UNL     1      51.468  19.262  16.939  0.00  0.00    -0.056 C 
ATOM     13  C   UNL     1      51.445  20.560  17.106  0.00  0.00    -0.126 C 
ATOM     14  C   UNL     1      51.540  21.475  15.912  0.00  0.00    +0.073 C 
ATOM     15  C   UNL     1      51.324  21.140  18.491  0.00  0.00    +0.077 C 
ENDBRANCH  11  12
ENDBRANCH  10  11
TORSDOF 9
ENDMDL
MODEL 6
REMARK VINA RESULT:      -5.4      3.364      7.895
REMARK  Name = ZINC14641747
REMARK  15 active torsions:
REMARK  status: ('A' for Active; 'I' for Inactive)
REMARK    1  A    between atoms: C1_1  and  C2_2
REMARK    2  A    between atoms: C2_2  and  C25_32
REMARK    3  A    between atoms: C3_3  and  C4_4
REMARK    4  A    between atoms: C4_4  and  C5_5
REMARK    5  A    between atoms: C6_6  and  O7_31
REMARK    6  A    between atoms: C7_7  and  C20_26
REMARK    7  A    between atoms: C10_10  and  O1_11
REMARK    8  A    between atoms: C14_16  and  O6_24
REMARK    9  A    between atoms: C15_17  and  O5_22
REMARK   10  A    between atoms: C16_18  and  O4_21
REMARK   11  A    between atoms: O5_22  and  C18_23
REMARK   12  A    between atoms: O6_24  and  C19_25
REMARK   13  A    between atoms: C20_26  and  C21_27
REMARK   14  A    between atoms: C22_28  and  C23_29
REMARK   15  A    between atoms: C22_28  and  C24_30
REMARK                            x       y       z     vdW  Elec       q    Type
REMARK                         _______ _______ _______ _____ _____    ______ ____
ROOT
ATOM      6  C   UNL     1      49.460  19.343  19.697  0.00  0.00    -0.162 A 
ATOM      7  C   UNL     1      49.271  18.241  20.524  0.00  0.00    +0.200 A 
ATOM     10  C   UNL     1      47.997  17.861  20.915  0.00  0.00    -0.137 A 
ATOM     16  C   UNL     1      46.890  18.581  20.486  0.00  0.00    +0.195 A 
ATOM     17  C   UNL     1      47.081  19.696  19.651  0.00  0.00    -0.267 A 
ATOM     18  C   UNL     1      45.903  20.455  19.200  0.00  0.00    +0.442 A 
ATOM     19  C   UNL     1      44.586  19.981  19.666  0.00  0.00    -0.179 A 
ATOM     20  C   UNL     1      43.414  20.641  19.288  0.00  0.00    +0.039 A 
ATOM     21  C   UNL     1      42.194  20.180  19.735  0.00  0.00    +0.099 A 
ATOM     24  C   UNL     1      42.131  19.059  20.564  0.00  0.00    +0.107 A 
ATOM     27  C   UNL     1      43.290  18.402  20.948  0.00  0.00    +0.103 A 
ATOM     30  C   UNL     1      44.529  18.853  20.498  0.00  0.00    +0.117 A 
ATOM     31  O   UNL     1      46.011  21.429  18.476  0.00  0.00    -0.430 OA
ATOM     32  O   UNL     1      45.654  18.205  20.871  0.00  0.00    -0.211 OA
ATOM     33  C   UNL     1      48.373  20.074  19.259  0.00  0.00    +0.220 A 
ENDROOT
BRANCH   7   8
ATOM      8  O   UNL     1      50.345  17.528  20.950  0.00  0.00    -0.479 OA
ATOM      9  H   UNL     1      50.479  17.553  21.907  0.00  0.00    +0.399 HD
ENDBRANCH   7   8
BRANCH  21  22
ATOM     22  O   UNL     1      41.050  20.820  19.369  0.00  0.00    -0.298 OA
ATOM     23  C   UNL     1      41.190  21.981  18.547  0.00  0.00    +0.249 C 
ENDBRANCH  21  22
BRANCH  24  25
ATOM     25  O   UNL     1      40.925  18.611  21.001  0.00  0.00    -0.309 OA
ATOM     26  C   UNL     1      40.353  19.280  22.128  0.00  0.00    +0.235 C 
ENDBRANCH  24  25
BRANCH  27  28
ATOM     28  O   UNL     1      43.215  17.313  21.760  0.00  0.00    -0.462 OA
ATOM     29  H   UNL     1      42.848  16.527  21.333  0.00  0.00    +0.391 HD
ENDBRANCH  27  28
BRANCH  33  34
ATOM     34  O   UNL     1      48.553  21.151  18.453  0.00  0.00    -0.467 OA
ATOM     35  H   UNL     1      47.821  21.312  17.842  0.00  0.00    +0.398 HD
ENDBRANCH  33  34
BRANCH   6   5
ATOM      5  C   UNL     1      50.853  19.742  19.280  0.00  0.00    +0.134 C 
BRANCH   5   4
ATOM      1  C   UNL     1      51.498  21.166  16.934  0.00  0.00    +0.076 C 
ATOM      2  C   UNL     1      51.595  19.663  16.956  0.00  0.00    -0.117 C 
ATOM      3  C   UNL     1      52.108  18.923  15.747  0.00  0.00    +0.072 C 
ATOM      4  C   UNL     1      51.234  18.999  18.026  0.00  0.00    -0.063 C 
ENDBRANCH   5   4
ENDBRANCH   6   5
BRANCH  10  11
ATOM     11  C   UNL     1      47.812  16.662  21.809  0.00  0.00    +0.137 C 
BRANCH  11  12
ATOM     12  C   UNL     1      47.555  15.440  20.966  0.00  0.00    -0.056 C 
ATOM     13  C   UNL     1      46.562  14.639  21.261  0.00  0.00    -0.126 C 
ATOM     14  C   UNL     1      46.304  13.417  20.417  0.00  0.00    +0.073 C 
ATOM     15  C   UNL     1      45.678  14.938  22.443  0.00  0.00    +0.077 C 
ENDBRANCH  11  12
ENDBRANCH  10  11
TORSDOF 9
ENDMDL
MODEL 7
REMARK VINA RESULT:      -5.3      1.701      2.289
REMARK  Name = ZINC14641747
REMARK  15 active torsions:
REMARK  status: ('A' for Active; 'I' for Inactive)
REMARK    1  A    between atoms: C1_1  and  C2_2
REMARK    2  A    between atoms: C2_2  and  C25_32
REMARK    3  A    between atoms: C3_3  and  C4_4
REMARK    4  A    between atoms: C4_4  and  C5_5
REMARK    5  A    between atoms: C6_6  and  O7_31
REMARK    6  A    between atoms: C7_7  and  C20_26
REMARK    7  A    between atoms: C10_10  and  O1_11
REMARK    8  A    between atoms: C14_16  and  O6_24
REMARK    9  A    between atoms: C15_17  and  O5_22
REMARK   10  A    between atoms: C16_18  and  O4_21
REMARK   11  A    between atoms: O5_22  and  C18_23
REMARK   12  A    between atoms: O6_24  and  C19_25
REMARK   13  A    between atoms: C20_26  and  C21_27
REMARK   14  A    between atoms: C22_28  and  C23_29
REMARK   15  A    between atoms: C22_28  and  C24_30
REMARK                            x       y       z     vdW  Elec       q    Type
REMARK                         _______ _______ _______ _____ _____    ______ ____
ROOT
ATOM      6  C   UNL     1      45.898  20.879  20.926  0.00  0.00    -0.162 A 
ATOM      7  C   UNL     1      47.270  21.035  20.756  0.00  0.00    +0.200 A 
ATOM     10  C   UNL     1      48.052  19.979  20.315  0.00  0.00    -0.137 A 
ATOM     16  C   UNL     1      47.473  18.748  20.039  0.00  0.00    +0.195 A 
ATOM     17  C   UNL     1      46.087  18.589  20.213  0.00  0.00    -0.267 A 
ATOM     18  C   UNL     1      45.479  17.281  19.919  0.00  0.00    +0.442 A 
ATOM     19  C   UNL     1      46.387  16.214  19.457  0.00  0.00    -0.179 A 
ATOM     20  C   UNL     1      45.897  14.940  19.156  0.00  0.00    +0.039 A 
ATOM     21  C   UNL     1      46.764  13.957  18.725  0.00  0.00    +0.099 A 
ATOM     24  C   UNL     1      48.126  14.235  18.591  0.00  0.00    +0.107 A 
ATOM     27  C   UNL     1      48.620  15.494  18.894  0.00  0.00    +0.103 A 
ATOM     30  C   UNL     1      47.754  16.498  19.324  0.00  0.00    +0.117 A 
ATOM     31  O   UNL     1      44.283  17.089  20.051  0.00  0.00    -0.430 OA
ATOM     32  O   UNL     1      48.240  17.725  19.611  0.00  0.00    -0.211 OA
ATOM     33  C   UNL     1      45.301  19.662  20.658  0.00  0.00    +0.220 A 
ENDROOT
BRANCH   7   8
ATOM      8  O   UNL     1      47.848  22.234  21.021  0.00  0.00    -0.479 OA
ATOM      9  H   UNL     1      48.814  22.204  21.063  0.00  0.00    +0.399 HD
ENDBRANCH   7   8
BRANCH  21  22
ATOM     22  O   UNL     1      46.291  12.715  18.430  0.00  0.00    -0.298 OA
ATOM     23  C   UNL     1      45.488  12.589  17.255  0.00  0.00    +0.249 C 
ENDBRANCH  21  22
BRANCH  24  25
ATOM     25  O   UNL     1      48.973  13.261  18.167  0.00  0.00    -0.309 OA
ATOM     26  C   UNL     1      49.195  13.162  16.758  0.00  0.00    +0.235 C 
ENDBRANCH  24  25
BRANCH  27  28
ATOM     28  O   UNL     1      49.949  15.751  18.765  0.00  0.00    -0.462 OA
ATOM     29  H   UNL     1      50.171  16.307  18.006  0.00  0.00    +0.391 HD
ENDBRANCH  27  28
BRANCH  33  34
ATOM     34  O   UNL     1      43.964  19.506  20.824  0.00  0.00    -0.467 OA
ATOM     35  H   UNL     1      43.602  18.722  20.388  0.00  0.00    +0.398 HD
ENDBRANCH  33  34
BRANCH   6   5
ATOM      5  C   UNL     1      45.062  22.039  21.405  0.00  0.00    +0.134 C 
BRANCH   5   4
ATOM      1  C   UNL     1      43.049  22.577  19.505  0.00  0.00    +0.076 C 
ATOM      2  C   UNL     1      44.248  23.482  19.612  0.00  0.00    -0.117 C 
ATOM      3  C   UNL     1      44.338  24.719  18.755  0.00  0.00    +0.072 C 
ATOM      4  C   UNL     1      45.213  23.195  20.450  0.00  0.00    -0.063 C 
ENDBRANCH   5   4
ENDBRANCH   6   5
BRANCH  10  11
ATOM     11  C   UNL     1      49.536  20.168  20.134  0.00  0.00    +0.137 C 
BRANCH  11  12
ATOM     12  C   UNL     1      49.810  20.711  18.755  0.00  0.00    -0.056 C 
ATOM     13  C   UNL     1      51.008  20.609  18.238  0.00  0.00    -0.126 C 
ATOM     14  C   UNL     1      51.282  21.152  16.859  0.00  0.00    +0.073 C 
ATOM     15  C   UNL     1      52.114  19.951  19.022  0.00  0.00    +0.077 C 
ENDBRANCH  11  12
ENDBRANCH  10  11
TORSDOF 9
ENDMDL
MODEL 8
REMARK VINA RESULT:      -5.1      3.016      3.387
REMARK  Name = ZINC14641747
REMARK  15 active torsions:
REMARK  status: ('A' for Active; 'I' for Inactive)
REMARK    1  A    between atoms: C1_1  and  C2_2
REMARK    2  A    between atoms: C2_2  and  C25_32
REMARK    3  A    between atoms: C3_3  and  C4_4
REMARK    4  A    between atoms: C4_4  and  C5_5
REMARK    5  A    between atoms: C6_6  and  O7_31
REMARK    6  A    between atoms: C7_7  and  C20_26
REMARK    7  A    between atoms: C10_10  and  O1_11
REMARK    8  A    between atoms: C14_16  and  O6_24
REMARK    9  A    between atoms: C15_17  and  O5_22
REMARK   10  A    between atoms: C16_18  and  O4_21
REMARK   11  A    between atoms: O5_22  and  C18_23
REMARK   12  A    between atoms: O6_24  and  C19_25
REMARK   13  A    between atoms: C20_26  and  C21_27
REMARK   14  A    between atoms: C22_28  and  C23_29
REMARK   15  A    between atoms: C22_28  and  C24_30
REMARK                            x       y       z     vdW  Elec       q    Type
REMARK                         _______ _______ _______ _____ _____    ______ ____
ROOT
ATOM      6  C   UNL     1      45.589  19.056  19.137  0.00  0.00    -0.162 A 
ATOM      7  C   UNL     1      46.576  20.033  19.200  0.00  0.00    +0.200 A 
ATOM     10  C   UNL     1      47.887  19.695  19.497  0.00  0.00    -0.137 A 
ATOM     16  C   UNL     1      48.230  18.371  19.738  0.00  0.00    +0.195 A 
ATOM     17  C   UNL     1      47.232  17.384  19.677  0.00  0.00    -0.267 A 
ATOM     18  C   UNL     1      47.602  15.982  19.934  0.00  0.00    +0.442 A 
ATOM     19  C   UNL     1      49.020  15.714  20.244  0.00  0.00    -0.179 A 
ATOM     20  C   UNL     1      49.461  14.413  20.502  0.00  0.00    +0.039 A 
ATOM     21  C   UNL     1      50.790  14.186  20.790  0.00  0.00    +0.099 A 
ATOM     24  C   UNL     1      51.691  15.251  20.823  0.00  0.00    +0.107 A 
ATOM     27  C   UNL     1      51.260  16.545  20.573  0.00  0.00    +0.103 A 
ATOM     30  C   UNL     1      49.921  16.789  20.275  0.00  0.00    +0.117 A 
ATOM     31  O   UNL     1      46.778  15.087  19.892  0.00  0.00    -0.430 OA
ATOM     32  O   UNL     1      49.508  18.050  20.027  0.00  0.00    -0.211 OA
ATOM     33  C   UNL     1      45.908  17.733  19.375  0.00  0.00    +0.220 A 
ENDROOT
BRANCH   7   8
ATOM      8  O   UNL     1      46.254  21.331  18.966  0.00  0.00    -0.479 OA
ATOM      9  H   UNL     1      46.379  21.607  18.048  0.00  0.00    +0.399 HD
ENDBRANCH   7   8
BRANCH  21  22
ATOM     22  O   UNL     1      51.224  12.920  21.041  0.00  0.00    -0.298 OA
ATOM     23  C   UNL     1      51.142  11.981  19.968  0.00  0.00    +0.249 C 
ENDBRANCH  21  22
BRANCH  24  25
ATOM     25  O   UNL     1      52.999  15.019  21.107  0.00  0.00    -0.309 OA
ATOM     26  C   UNL     1      53.862  14.729  20.005  0.00  0.00    +0.235 C 
ENDBRANCH  24  25
BRANCH  27  28
ATOM     28  O   UNL     1      52.147  17.576  20.614  0.00  0.00    -0.462 OA
ATOM     29  H   UNL     1      52.274  17.953  21.495  0.00  0.00    +0.391 HD
ENDBRANCH  27  28
BRANCH  33  34
ATOM     34  O   UNL     1      44.947  16.777  19.315  0.00  0.00    -0.467 OA
ATOM     35  H   UNL     1      44.057  17.123  19.159  0.00  0.00    +0.398 HD
ENDBRANCH  33  34
BRANCH   6   5
ATOM      5  C   UNL     1      44.168  19.442  18.812  0.00  0.00    +0.134 C 
BRANCH   5   4
ATOM      1  C   UNL     1      41.423  20.081  18.719  0.00  0.00    +0.076 C 
ATOM      2  C   UNL     1      42.004  19.419  19.942  0.00  0.00    -0.117 C 
ATOM      3  C   UNL     1      41.105  19.030  21.088  0.00  0.00    +0.072 C 
ATOM      4  C   UNL     1      43.291  19.182  20.009  0.00  0.00    -0.063 C 
ENDBRANCH   5   4
ENDBRANCH   6   5
BRANCH  10  11
ATOM     11  C   UNL     1      48.944  20.768  19.558  0.00  0.00    +0.137 C 
BRANCH  11  12
ATOM     12  C   UNL     1      49.605  20.900  18.211  0.00  0.00    -0.056 C 
ATOM     13  C   UNL     1      50.907  21.005  18.128  0.00  0.00    -0.126 C 
ATOM     14  C   UNL     1      51.568  21.138  16.780  0.00  0.00    +0.073 C 
ATOM     15  C   UNL     1      51.746  20.994  19.380  0.00  0.00    +0.077 C 
ENDBRANCH  11  12
ENDBRANCH  10  11
TORSDOF 9
ENDMDL
MODEL 9
REMARK VINA RESULT:      -4.9      2.667      7.747
REMARK  Name = ZINC14641747
REMARK  15 active torsions:
REMARK  status: ('A' for Active; 'I' for Inactive)
REMARK    1  A    between atoms: C1_1  and  C2_2
REMARK    2  A    between atoms: C2_2  and  C25_32
REMARK    3  A    between atoms: C3_3  and  C4_4
REMARK    4  A    between atoms: C4_4  and  C5_5
REMARK    5  A    between atoms: C6_6  and  O7_31
REMARK    6  A    between atoms: C7_7  and  C20_26
REMARK    7  A    between atoms: C10_10  and  O1_11
REMARK    8  A    between atoms: C14_16  and  O6_24
REMARK    9  A    between atoms: C15_17  and  O5_22
REMARK   10  A    between atoms: C16_18  and  O4_21
REMARK   11  A    between atoms: O5_22  and  C18_23
REMARK   12  A    between atoms: O6_24  and  C19_25
REMARK   13  A    between atoms: C20_26  and  C21_27
REMARK   14  A    between atoms: C22_28  and  C23_29
REMARK   15  A    between atoms: C22_28  and  C24_30
REMARK                            x       y       z     vdW  Elec       q    Type
REMARK                         _______ _______ _______ _____ _____    ______ ____
ROOT
ATOM      6  C   UNL     1      48.203  12.138  17.515  0.00  0.00    -0.162 A 
ATOM      7  C   UNL     1      49.287  11.997  16.656  0.00  0.00    +0.200 A 
ATOM     10  C   UNL     1      50.108  13.076  16.369  0.00  0.00    -0.137 A 
ATOM     16  C   UNL     1      49.854  14.318  16.938  0.00  0.00    +0.195 A 
ATOM     17  C   UNL     1      48.757  14.461  17.805  0.00  0.00    -0.267 A 
ATOM     18  C   UNL     1      48.494  15.780  18.404  0.00  0.00    +0.442 A 
ATOM     19  C   UNL     1      49.418  16.873  18.042  0.00  0.00    -0.179 A 
ATOM     20  C   UNL     1      49.243  18.158  18.563  0.00  0.00    +0.039 A 
ATOM     21  C   UNL     1      50.118  19.164  18.212  0.00  0.00    +0.099 A 
ATOM     24  C   UNL     1      51.174  18.899  17.338  0.00  0.00    +0.107 A 
ATOM     27  C   UNL     1      51.350  17.628  16.812  0.00  0.00    +0.103 A 
ATOM     30  C   UNL     1      50.477  16.600  17.164  0.00  0.00    +0.117 A 
ATOM     31  O   UNL     1      47.558  15.961  19.163  0.00  0.00    -0.430 OA
ATOM     32  O   UNL     1      50.657  15.363  16.654  0.00  0.00    -0.211 OA
ATOM     33  C   UNL     1      47.932  13.365  18.091  0.00  0.00    +0.220 A 
ENDROOT
BRANCH   7   8
ATOM      8  O   UNL     1      49.547  10.789  16.094  0.00  0.00    -0.479 OA
ATOM      9  H   UNL     1      50.489  10.596  15.992  0.00  0.00    +0.399 HD
ENDBRANCH   7   8
BRANCH  21  22
ATOM     22  O   UNL     1      49.952  20.417  18.717  0.00  0.00    -0.298 OA
ATOM     23  C   UNL     1      49.515  20.516  20.074  0.00  0.00    +0.249 C 
ENDBRANCH  21  22
BRANCH  24  25
ATOM     25  O   UNL     1      52.032  19.895  16.996  0.00  0.00    -0.309 OA
ATOM     26  C   UNL     1      51.637  20.751  15.920  0.00  0.00    +0.235 C 
ENDBRANCH  24  25
BRANCH  27  28
ATOM     28  O   UNL     1      52.380  17.383  15.958  0.00  0.00    -0.462 OA
ATOM     29  H   UNL     1      52.187  17.601  15.035  0.00  0.00    +0.391 HD
ENDBRANCH  27  28
BRANCH  33  34
ATOM     34  O   UNL     1      46.875  13.507  18.929  0.00  0.00    -0.467 OA
ATOM     35  H   UNL     1      46.187  12.837  18.813  0.00  0.00    +0.398 HD
ENDBRANCH  33  34
BRANCH   6   5
ATOM      5  C   UNL     1      47.322  10.953  17.817  0.00  0.00    +0.134 C 
BRANCH   5   4
ATOM      1  C   UNL     1      44.832  11.835  16.828  0.00  0.00    +0.076 C 
ATOM      2  C   UNL     1      45.653  10.849  16.038  0.00  0.00    -0.117 C 
ATOM      3  C   UNL     1      45.179  10.389  14.683  0.00  0.00    +0.072 C 
ATOM      4  C   UNL     1      46.778  10.392  16.529  0.00  0.00    -0.063 C 
ENDBRANCH   5   4
ENDBRANCH   6   5
BRANCH  10  11
ATOM     11  C   UNL     1      51.280  12.903  15.438  0.00  0.00    +0.137 C 
BRANCH  11  12
ATOM     12  C   UNL     1      50.915  13.417  14.069  0.00  0.00    -0.056 C 
ATOM     13  C   UNL     1      50.896  12.599  13.046  0.00  0.00    -0.126 C 
ATOM     14  C   UNL     1      50.531  13.113  11.677  0.00  0.00    +0.073 C 
ATOM     15  C   UNL     1      51.240  11.145  13.237  0.00  0.00    +0.077 C 
ENDBRANCH  11  12
ENDBRANCH  10  11
TORSDOF 9
ENDMDL
