MODEL 1
REMARK VINA RESULT:      -6.6      0.000      0.000
REMARK  Name = ZINC95486245
REMARK  15 active torsions:
REMARK  status: ('A' for Active; 'I' for Inactive)
REMARK    1  A    between atoms: C1_1  and  C2_2
REMARK    2  A    between atoms: C2_2  and  C3_4
REMARK    3  A    between atoms: C2_2  and  C9_11
REMARK    4  A    between atoms: C3_4  and  C4_5
REMARK    5  A    between atoms: C4_5  and  C5_6
REMARK    6  A    between atoms: C6_7  and  C7_8
REMARK    7  A    between atoms: C6_7  and  C8_9
REMARK    8  A    between atoms: C8_9  and  O1_10
REMARK    9  A    between atoms: C12_15  and  C30_39
REMARK   10  A    between atoms: C13_16  and  C29_38
REMARK   11  A    between atoms: C21_26  and  C28_37
REMARK   12  A    between atoms: C22_27  and  O3_36
REMARK   13  A    between atoms: C24_30  and  O2_35
REMARK   14  A    between atoms: C25_32  and  C26_33
REMARK   15  A    between atoms: C25_32  and  C27_34
REMARK                            x       y       z     vdW  Elec       q    Type
REMARK                         _______ _______ _______ _____ _____    ______ ____
ROOT
ATOM      3  C   UNL     1      47.644  18.689  20.011  0.00  0.00    -0.000 C 
ATOM      4  C   UNL     1      48.706  18.321  21.081  0.00  0.00    +0.008 C 
ATOM      5  C   UNL     1      49.087  16.831  20.827  0.00  0.00    +0.018 C 
ATOM      6  C   UNL     1      47.855  16.310  20.072  0.00  0.00    -0.026 C 
ATOM      7  C   UNL     1      46.687  16.130  21.045  0.00  0.00    +0.036 C 
ATOM      8  C   UNL     1      48.055  15.077  19.239  0.00  0.00    -0.080 C 
ATOM      9  C   UNL     1      49.129  14.367  19.358  0.00  0.00    -0.067 C 
ATOM     10  C   UNL     1      49.362  13.131  18.539  0.00  0.00    +0.053 C 
ATOM     11  C   UNL     1      48.019  12.460  18.202  0.00  0.00    +0.031 C 
ATOM     12  C   UNL     1      47.137  13.467  17.472  0.00  0.00    -0.026 C 
ATOM     13  C   UNL     1      45.708  12.910  17.309  0.00  0.00    +0.029 C 
ATOM     14  C   UNL     1      47.681  13.778  16.083  0.00  0.00    +0.184 C 
ATOM     17  C   UNL     1      47.962  12.503  15.288  0.00  0.00    -0.042 C 
ATOM     18  C   UNL     1      48.912  11.581  16.037  0.00  0.00    +0.174 C 
ATOM     21  C   UNL     1      48.330  11.201  17.399  0.00  0.00    -0.046 C 
ATOM     22  C   UNL     1      49.398  10.366  18.140  0.00  0.00    +0.026 C 
ATOM     23  C   UNL     1      47.126  10.277  17.224  0.00  0.00    +0.036 C 
ATOM     24  C   UNL     1      46.939  14.739  18.289  0.00  0.00    +0.027 C 
ATOM     25  C   UNL     1      46.578  15.941  17.424  0.00  0.00    +0.045 C 
ATOM     26  C   UNL     1      46.383  17.216  18.265  0.00  0.00    +0.013 C 
ATOM     27  C   UNL     1      47.620  17.479  19.077  0.00  0.00    -0.042 C 
ATOM     28  C   UNL     1      48.823  17.606  18.132  0.00  0.00    +0.020 C 
ENDROOT
BRANCH   3   2
ATOM      1  C   UNL     1      46.844  20.725  18.802  0.00  0.00    +0.013 C 
ATOM      2  C   UNL     1      48.082  19.936  19.240  0.00  0.00    -0.010 C 
BRANCH   2  29
ATOM     29  C   UNL     1      48.953  20.813  20.140  0.00  0.00    +0.013 C 
BRANCH  29  30
ATOM     30  C   UNL     1      50.412  20.713  19.693  0.00  0.00    +0.043 C 
BRANCH  30  31
ATOM     31  C   UNL     1      50.503  20.977  18.211  0.00  0.00    -0.012 C 
ATOM     32  C   UNL     1      51.476  20.451  17.511  0.00  0.00    -0.158 C 
ATOM     36  C   UNL     1      52.577  19.690  18.203  0.00  0.00    +0.083 C 
BRANCH  32  33
ATOM     33  C   UNL     1      51.495  20.608  16.012  0.00  0.00    +0.222 C 
BRANCH  33  34
ATOM     34  O   UNL     1      51.782  21.967  15.679  0.00  0.00    -0.572 OA
ATOM     35  H   UNL     1      51.826  22.559  16.443  0.00  0.00    +0.382 HD
ENDBRANCH  33  34
ENDBRANCH  32  33
ENDBRANCH  30  31
ENDBRANCH  29  30
ENDBRANCH   2  29
ENDBRANCH   3   2
BRANCH  14  15
ATOM     15  O   UNL     1      46.702  14.519  15.335  0.00  0.00    -0.559 OA
ATOM     16  H   UNL     1      47.079  15.082  14.644  0.00  0.00    +0.371 HD
ENDBRANCH  14  15
BRANCH  18  19
ATOM     19  O   UNL     1      49.130  10.391  15.270  0.00  0.00    -0.562 OA
ATOM     20  H   UNL     1      50.061  10.147  15.180  0.00  0.00    +0.375 HD
ENDBRANCH  18  19
TORSDOF 8
ENDMDL
MODEL 2
REMARK VINA RESULT:      -6.3      3.380      4.922
REMARK  Name = ZINC95486245
REMARK  15 active torsions:
REMARK  status: ('A' for Active; 'I' for Inactive)
REMARK    1  A    between atoms: C1_1  and  C2_2
REMARK    2  A    between atoms: C2_2  and  C3_4
REMARK    3  A    between atoms: C2_2  and  C9_11
REMARK    4  A    between atoms: C3_4  and  C4_5
REMARK    5  A    between atoms: C4_5  and  C5_6
REMARK    6  A    between atoms: C6_7  and  C7_8
REMARK    7  A    between atoms: C6_7  and  C8_9
REMARK    8  A    between atoms: C8_9  and  O1_10
REMARK    9  A    between atoms: C12_15  and  C30_39
REMARK   10  A    between atoms: C13_16  and  C29_38
REMARK   11  A    between atoms: C21_26  and  C28_37
REMARK   12  A    between atoms: C22_27  and  O3_36
REMARK   13  A    between atoms: C24_30  and  O2_35
REMARK   14  A    between atoms: C25_32  and  C26_33
REMARK   15  A    between atoms: C25_32  and  C27_34
REMARK                            x       y       z     vdW  Elec       q    Type
REMARK                         _______ _______ _______ _____ _____    ______ ____
ROOT
ATOM      3  C   UNL     1      45.838  16.156  21.333  0.00  0.00    -0.000 C 
ATOM      4  C   UNL     1      47.091  17.056  21.503  0.00  0.00    +0.008 C 
ATOM      5  C   UNL     1      48.142  16.544  20.473  0.00  0.00    +0.018 C 
ATOM      6  C   UNL     1      47.676  15.101  20.231  0.00  0.00    -0.026 C 
ATOM      7  C   UNL     1      48.032  14.230  21.438  0.00  0.00    +0.036 C 
ATOM      8  C   UNL     1      48.131  14.458  18.952  0.00  0.00    -0.080 C 
ATOM      9  C   UNL     1      49.058  15.003  18.233  0.00  0.00    -0.067 C 
ATOM     10  C   UNL     1      49.534  14.389  16.949  0.00  0.00    +0.053 C 
ATOM     11  C   UNL     1      49.397  12.857  17.013  0.00  0.00    +0.031 C 
ATOM     12  C   UNL     1      47.942  12.508  17.304  0.00  0.00    -0.026 C 
ATOM     13  C   UNL     1      47.801  10.998  17.592  0.00  0.00    +0.029 C 
ATOM     14  C   UNL     1      47.042  12.846  16.123  0.00  0.00    +0.184 C 
ATOM     17  C   UNL     1      47.576  12.257  14.818  0.00  0.00    -0.042 C 
ATOM     18  C   UNL     1      49.002  12.712  14.547  0.00  0.00    +0.174 C 
ATOM     21  C   UNL     1      49.924  12.300  15.695  0.00  0.00    -0.046 C 
ATOM     22  C   UNL     1      51.319  12.896  15.402  0.00  0.00    +0.026 C 
ATOM     23  C   UNL     1      50.114  10.784  15.706  0.00  0.00    +0.036 C 
ATOM     24  C   UNL     1      47.450  13.168  18.587  0.00  0.00    +0.027 C 
ATOM     25  C   UNL     1      45.934  13.325  18.621  0.00  0.00    +0.045 C 
ATOM     26  C   UNL     1      45.454  13.995  19.921  0.00  0.00    +0.013 C 
ATOM     27  C   UNL     1      46.145  15.319  20.092  0.00  0.00    -0.042 C 
ATOM     28  C   UNL     1      45.855  16.197  18.866  0.00  0.00    +0.020 C 
ENDROOT
BRANCH   3   2
ATOM      1  C   UNL     1      43.526  16.672  22.129  0.00  0.00    +0.013 C 
ATOM      2  C   UNL     1      44.597  17.017  21.091  0.00  0.00    -0.010 C 
BRANCH   2  29
ATOM     29  C   UNL     1      44.970  18.495  21.216  0.00  0.00    +0.013 C 
BRANCH  29  30
ATOM     30  C   UNL     1      43.704  19.323  21.449  0.00  0.00    +0.043 C 
BRANCH  30  31
ATOM     31  C   UNL     1      43.135  19.756  20.123  0.00  0.00    -0.012 C 
ATOM     32  C   UNL     1      41.846  19.670  19.903  0.00  0.00    -0.158 C 
ATOM     36  C   UNL     1      40.950  19.018  20.924  0.00  0.00    +0.083 C 
BRANCH  32  33
ATOM     33  C   UNL     1      41.262  20.221  18.628  0.00  0.00    +0.222 C 
BRANCH  33  34
ATOM     34  O   UNL     1      41.747  21.547  18.416  0.00  0.00    -0.572 OA
ATOM     35  H   UNL     1      41.895  22.048  19.230  0.00  0.00    +0.382 HD
ENDBRANCH  33  34
ENDBRANCH  32  33
ENDBRANCH  30  31
ENDBRANCH  29  30
ENDBRANCH   2  29
ENDBRANCH   3   2
BRANCH  14  15
ATOM     15  O   UNL     1      45.740  12.274  16.328  0.00  0.00    -0.559 OA
ATOM     16  H   UNL     1      45.275  12.052  15.508  0.00  0.00    +0.371 HD
ENDBRANCH  14  15
BRANCH  18  19
ATOM     19  O   UNL     1      49.472  12.121  13.330  0.00  0.00    -0.562 OA
ATOM     20  H   UNL     1      49.083  12.503  12.532  0.00  0.00    +0.375 HD
ENDBRANCH  18  19
TORSDOF 8
ENDMDL
MODEL 3
REMARK VINA RESULT:      -6.1      3.066      8.153
REMARK  Name = ZINC95486245
REMARK  15 active torsions:
REMARK  status: ('A' for Active; 'I' for Inactive)
REMARK    1  A    between atoms: C1_1  and  C2_2
REMARK    2  A    between atoms: C2_2  and  C3_4
REMARK    3  A    between atoms: C2_2  and  C9_11
REMARK    4  A    between atoms: C3_4  and  C4_5
REMARK    5  A    between atoms: C4_5  and  C5_6
REMARK    6  A    between atoms: C6_7  and  C7_8
REMARK    7  A    between atoms: C6_7  and  C8_9
REMARK    8  A    between atoms: C8_9  and  O1_10
REMARK    9  A    between atoms: C12_15  and  C30_39
REMARK   10  A    between atoms: C13_16  and  C29_38
REMARK   11  A    between atoms: C21_26  and  C28_37
REMARK   12  A    between atoms: C22_27  and  O3_36
REMARK   13  A    between atoms: C24_30  and  O2_35
REMARK   14  A    between atoms: C25_32  and  C26_33
REMARK   15  A    between atoms: C25_32  and  C27_34
REMARK                            x       y       z     vdW  Elec       q    Type
REMARK                         _______ _______ _______ _____ _____    ______ ____
ROOT
ATOM      3  C   UNL     1      47.940  15.063  18.264  0.00  0.00    -0.000 C 
ATOM      4  C   UNL     1      48.978  15.872  17.440  0.00  0.00    +0.008 C 
ATOM      5  C   UNL     1      48.571  17.370  17.572  0.00  0.00    +0.018 C 
ATOM      6  C   UNL     1      47.081  17.267  17.929  0.00  0.00    -0.026 C 
ATOM      7  C   UNL     1      46.274  16.874  16.689  0.00  0.00    +0.036 C 
ATOM      8  C   UNL     1      46.473  18.460  18.609  0.00  0.00    -0.080 C 
ATOM      9  C   UNL     1      47.108  19.587  18.656  0.00  0.00    -0.067 C 
ATOM     10  C   UNL     1      46.531  20.798  19.331  0.00  0.00    +0.053 C 
ATOM     11  C   UNL     1      44.994  20.772  19.239  0.00  0.00    +0.031 C 
ATOM     12  C   UNL     1      44.488  19.478  19.866  0.00  0.00    -0.026 C 
ATOM     13  C   UNL     1      42.977  19.310  19.602  0.00  0.00    +0.029 C 
ATOM     14  C   UNL     1      44.705  19.469  21.374  0.00  0.00    +0.184 C 
ATOM     17  C   UNL     1      44.159  20.736  22.032  0.00  0.00    -0.042 C 
ATOM     18  C   UNL     1      44.767  21.987  21.414  0.00  0.00    +0.174 C 
ATOM     21  C   UNL     1      44.479  22.039  19.913  0.00  0.00    -0.046 C 
ATOM     22  C   UNL     1      45.224  23.267  19.344  0.00  0.00    +0.026 C 
ATOM     23  C   UNL     1      42.994  22.301  19.665  0.00  0.00    +0.036 C 
ATOM     24  C   UNL     1      45.110  18.251  19.207  0.00  0.00    +0.027 C 
ATOM     25  C   UNL     1      45.096  17.028  20.116  0.00  0.00    +0.045 C 
ATOM     26  C   UNL     1      45.728  15.800  19.436  0.00  0.00    +0.013 C 
ATOM     27  C   UNL     1      47.124  16.132  18.989  0.00  0.00    -0.042 C 
ATOM     28  C   UNL     1      47.944  16.588  20.204  0.00  0.00    +0.020 C 
ENDROOT
BRANCH   3   2
ATOM      1  C   UNL     1      47.692  13.078  19.761  0.00  0.00    +0.013 C 
ATOM      2  C   UNL     1      48.653  14.169  19.280  0.00  0.00    -0.010 C 
BRANCH   2  29
ATOM     29  C   UNL     1      49.872  13.521  18.623  0.00  0.00    +0.013 C 
BRANCH  29  30
ATOM     30  C   UNL     1      49.450  12.222  17.934  0.00  0.00    +0.043 C 
BRANCH  30  31
ATOM     31  C   UNL     1      49.588  12.376  16.441  0.00  0.00    -0.012 C 
ATOM     32  C   UNL     1      48.526  12.333  15.677  0.00  0.00    -0.158 C 
ATOM     36  C   UNL     1      47.182  11.999  16.272  0.00  0.00    +0.083 C 
BRANCH  32  33
ATOM     33  C   UNL     1      48.647  12.615  14.202  0.00  0.00    +0.222 C 
BRANCH  33  34
ATOM     34  O   UNL     1      47.519  13.377  13.767  0.00  0.00    -0.572 OA
ATOM     35  H   UNL     1      47.493  13.531  12.812  0.00  0.00    +0.382 HD
ENDBRANCH  33  34
ENDBRANCH  32  33
ENDBRANCH  30  31
ENDBRANCH  29  30
ENDBRANCH   2  29
ENDBRANCH   3   2
BRANCH  14  15
ATOM     15  O   UNL     1      43.993  18.366  21.959  0.00  0.00    -0.559 OA
ATOM     16  H   UNL     1      43.703  17.701  21.318  0.00  0.00    +0.371 HD
ENDBRANCH  14  15
BRANCH  18  19
ATOM     19  O   UNL     1      44.213  23.150  22.040  0.00  0.00    -0.562 OA
ATOM     20  H   UNL     1      44.571  23.984  21.708  0.00  0.00    +0.375 HD
ENDBRANCH  18  19
TORSDOF 8
ENDMDL
MODEL 4
REMARK VINA RESULT:      -6.1      3.597      6.687
REMARK  Name = ZINC95486245
REMARK  15 active torsions:
REMARK  status: ('A' for Active; 'I' for Inactive)
REMARK    1  A    between atoms: C1_1  and  C2_2
REMARK    2  A    between atoms: C2_2  and  C3_4
REMARK    3  A    between atoms: C2_2  and  C9_11
REMARK    4  A    between atoms: C3_4  and  C4_5
REMARK    5  A    between atoms: C4_5  and  C5_6
REMARK    6  A    between atoms: C6_7  and  C7_8
REMARK    7  A    between atoms: C6_7  and  C8_9
REMARK    8  A    between atoms: C8_9  and  O1_10
REMARK    9  A    between atoms: C12_15  and  C30_39
REMARK   10  A    between atoms: C13_16  and  C29_38
REMARK   11  A    between atoms: C21_26  and  C28_37
REMARK   12  A    between atoms: C22_27  and  O3_36
REMARK   13  A    between atoms: C24_30  and  O2_35
REMARK   14  A    between atoms: C25_32  and  C26_33
REMARK   15  A    between atoms: C25_32  and  C27_34
REMARK                            x       y       z     vdW  Elec       q    Type
REMARK                         _______ _______ _______ _____ _____    ______ ____
ROOT
ATOM      3  C   UNL     1      49.818  15.919  19.550  0.00  0.00    -0.000 C 
ATOM      4  C   UNL     1      49.597  15.669  18.035  0.00  0.00    +0.008 C 
ATOM      5  C   UNL     1      48.262  16.381  17.662  0.00  0.00    +0.018 C 
ATOM      6  C   UNL     1      47.552  16.462  19.022  0.00  0.00    -0.026 C 
ATOM      7  C   UNL     1      47.023  15.082  19.416  0.00  0.00    +0.036 C 
ATOM      8  C   UNL     1      46.481  17.506  19.154  0.00  0.00    -0.080 C 
ATOM      9  C   UNL     1      46.023  18.118  18.111  0.00  0.00    -0.067 C 
ATOM     10  C   UNL     1      44.955  19.168  18.208  0.00  0.00    +0.053 C 
ATOM     11  C   UNL     1      44.034  18.876  19.407  0.00  0.00    +0.031 C 
ATOM     12  C   UNL     1      44.883  18.811  20.671  0.00  0.00    -0.026 C 
ATOM     13  C   UNL     1      44.037  18.307  21.859  0.00  0.00    +0.029 C 
ATOM     14  C   UNL     1      45.439  20.180  21.039  0.00  0.00    +0.184 C 
ATOM     17  C   UNL     1      44.342  21.244  21.078  0.00  0.00    -0.042 C 
ATOM     18  C   UNL     1      43.589  21.313  19.757  0.00  0.00    +0.174 C 
ATOM     21  C   UNL     1      42.961  19.959  19.427  0.00  0.00    -0.046 C 
ATOM     22  C   UNL     1      42.319  20.078  18.027  0.00  0.00    +0.026 C 
ATOM     23  C   UNL     1      41.810  19.658  20.387  0.00  0.00    +0.036 C 
ATOM     24  C   UNL     1      45.993  17.773  20.551  0.00  0.00    +0.027 C 
ATOM     25  C   UNL     1      47.160  18.053  21.491  0.00  0.00    +0.045 C 
ATOM     26  C   UNL     1      48.273  16.997  21.356  0.00  0.00    +0.013 C 
ATOM     27  C   UNL     1      48.729  16.923  19.926  0.00  0.00    -0.042 C 
ATOM     28  C   UNL     1      49.212  18.311  19.481  0.00  0.00    +0.020 C 
ENDROOT
BRANCH   3   2
ATOM      1  C   UNL     1      51.979  15.662  20.778  0.00  0.00    +0.013 C 
ATOM      2  C   UNL     1      51.199  16.532  19.788  0.00  0.00    -0.010 C 
BRANCH   2  29
ATOM     29  C   UNL     1      51.960  16.605  18.464  0.00  0.00    +0.013 C 
BRANCH  29  30
ATOM     30  C   UNL     1      52.719  17.931  18.384  0.00  0.00    +0.043 C 
BRANCH  30  31
ATOM     31  C   UNL     1      52.056  18.830  17.372  0.00  0.00    -0.012 C 
ATOM     32  C   UNL     1      51.915  20.108  17.624  0.00  0.00    -0.158 C 
ATOM     36  C   UNL     1      52.298  20.656  18.974  0.00  0.00    +0.083 C 
BRANCH  32  33
ATOM     33  C   UNL     1      51.370  21.028  16.563  0.00  0.00    +0.222 C 
BRANCH  33  34
ATOM     34  O   UNL     1      52.443  21.511  15.753  0.00  0.00    -0.572 OA
ATOM     35  H   UNL     1      52.679  20.924  15.021  0.00  0.00    +0.382 HD
ENDBRANCH  33  34
ENDBRANCH  32  33
ENDBRANCH  30  31
ENDBRANCH  29  30
ENDBRANCH   2  29
ENDBRANCH   3   2
BRANCH  14  15
ATOM     15  O   UNL     1      46.010  20.133  22.357  0.00  0.00    -0.559 OA
ATOM     16  H   UNL     1      46.940  20.398  22.393  0.00  0.00    +0.371 HD
ENDBRANCH  14  15
BRANCH  18  19
ATOM     19  O   UNL     1      42.558  22.303  19.844  0.00  0.00    -0.562 OA
ATOM     20  H   UNL     1      41.751  21.993  20.275  0.00  0.00    +0.375 HD
ENDBRANCH  18  19
TORSDOF 8
ENDMDL
MODEL 5
REMARK VINA RESULT:      -6.0      4.016      7.752
REMARK  Name = ZINC95486245
REMARK  15 active torsions:
REMARK  status: ('A' for Active; 'I' for Inactive)
REMARK    1  A    between atoms: C1_1  and  C2_2
REMARK    2  A    between atoms: C2_2  and  C3_4
REMARK    3  A    between atoms: C2_2  and  C9_11
REMARK    4  A    between atoms: C3_4  and  C4_5
REMARK    5  A    between atoms: C4_5  and  C5_6
REMARK    6  A    between atoms: C6_7  and  C7_8
REMARK    7  A    between atoms: C6_7  and  C8_9
REMARK    8  A    between atoms: C8_9  and  O1_10
REMARK    9  A    between atoms: C12_15  and  C30_39
REMARK   10  A    between atoms: C13_16  and  C29_38
REMARK   11  A    between atoms: C21_26  and  C28_37
REMARK   12  A    between atoms: C22_27  and  O3_36
REMARK   13  A    between atoms: C24_30  and  O2_35
REMARK   14  A    between atoms: C25_32  and  C26_33
REMARK   15  A    between atoms: C25_32  and  C27_34
REMARK                            x       y       z     vdW  Elec       q    Type
REMARK                         _______ _______ _______ _____ _____    ______ ____
ROOT
ATOM      3  C   UNL     1      51.723  17.475  18.279  0.00  0.00    -0.000 C 
ATOM      4  C   UNL     1      52.624  18.655  18.733  0.00  0.00    +0.008 C 
ATOM      5  C   UNL     1      51.666  19.742  19.307  0.00  0.00    +0.018 C 
ATOM      6  C   UNL     1      50.336  19.389  18.628  0.00  0.00    -0.026 C 
ATOM      7  C   UNL     1      50.374  19.811  17.157  0.00  0.00    +0.036 C 
ATOM      8  C   UNL     1      49.089  19.891  19.298  0.00  0.00    -0.080 C 
ATOM      9  C   UNL     1      49.158  20.774  20.241  0.00  0.00    -0.067 C 
ATOM     10  C   UNL     1      47.932  21.295  20.935  0.00  0.00    +0.053 C 
ATOM     11  C   UNL     1      46.732  21.276  19.971  0.00  0.00    +0.031 C 
ATOM     12  C   UNL     1      46.535  19.852  19.463  0.00  0.00    -0.026 C 
ATOM     13  C   UNL     1      45.485  19.828  18.332  0.00  0.00    +0.029 C 
ATOM     14  C   UNL     1      46.051  18.928  20.572  0.00  0.00    +0.184 C 
ATOM     17  C   UNL     1      44.836  19.505  21.300  0.00  0.00    -0.042 C 
ATOM     18  C   UNL     1      45.129  20.892  21.852  0.00  0.00    +0.174 C 
ATOM     21  C   UNL     1      45.535  21.843  20.727  0.00  0.00    -0.046 C 
ATOM     22  C   UNL     1      45.927  23.189  21.379  0.00  0.00    +0.026 C 
ATOM     23  C   UNL     1      44.337  22.150  19.830  0.00  0.00    +0.036 C 
ATOM     24  C   UNL     1      47.796  19.311  18.798  0.00  0.00    +0.027 C 
ATOM     25  C   UNL     1      47.848  17.788  18.794  0.00  0.00    +0.045 C 
ATOM     26  C   UNL     1      49.128  17.258  18.121  0.00  0.00    +0.013 C 
ATOM     27  C   UNL     1      50.334  17.845  18.799  0.00  0.00    -0.042 C 
ATOM     28  C   UNL     1      50.294  17.488  20.291  0.00  0.00    +0.020 C 
ENDROOT
BRANCH   3   2
ATOM      1  C   UNL     1      51.806  14.990  18.034  0.00  0.00    +0.013 C 
ATOM      2  C   UNL     1      52.194  16.172  18.927  0.00  0.00    -0.010 C 
BRANCH   2  29
ATOM     29  C   UNL     1      53.714  16.206  19.095  0.00  0.00    +0.013 C 
BRANCH  29  30
ATOM     30  C   UNL     1      54.104  15.454  20.369  0.00  0.00    +0.043 C 
BRANCH  30  31
ATOM     31  C   UNL     1      55.449  15.937  20.847  0.00  0.00    -0.012 C 
ATOM     32  C   UNL     1      56.544  15.378  20.396  0.00  0.00    -0.158 C 
ATOM     36  C   UNL     1      56.460  14.168  19.503  0.00  0.00    +0.083 C 
BRANCH  32  33
ATOM     33  C   UNL     1      57.889  15.944  20.774  0.00  0.00    +0.222 C 
BRANCH  33  34
ATOM     34  O   UNL     1      58.215  17.025  19.898  0.00  0.00    -0.572 OA
ATOM     35  H   UNL     1      59.045  16.904  19.416  0.00  0.00    +0.382 HD
ENDBRANCH  33  34
ENDBRANCH  32  33
ENDBRANCH  30  31
ENDBRANCH  29  30
ENDBRANCH   2  29
ENDBRANCH   3   2
BRANCH  14  15
ATOM     15  O   UNL     1      45.632  17.674  20.010  0.00  0.00    -0.559 OA
ATOM     16  H   UNL     1      44.757  17.700  19.597  0.00  0.00    +0.371 HD
ENDBRANCH  14  15
BRANCH  18  19
ATOM     19  O   UNL     1      43.961  21.405  22.504  0.00  0.00    -0.562 OA
ATOM     20  H   UNL     1      43.386  20.723  22.875  0.00  0.00    +0.375 HD
ENDBRANCH  18  19
TORSDOF 8
ENDMDL
MODEL 6
REMARK VINA RESULT:      -5.9      3.090      4.860
REMARK  Name = ZINC95486245
REMARK  15 active torsions:
REMARK  status: ('A' for Active; 'I' for Inactive)
REMARK    1  A    between atoms: C1_1  and  C2_2
REMARK    2  A    between atoms: C2_2  and  C3_4
REMARK    3  A    between atoms: C2_2  and  C9_11
REMARK    4  A    between atoms: C3_4  and  C4_5
REMARK    5  A    between atoms: C4_5  and  C5_6
REMARK    6  A    between atoms: C6_7  and  C7_8
REMARK    7  A    between atoms: C6_7  and  C8_9
REMARK    8  A    between atoms: C8_9  and  O1_10
REMARK    9  A    between atoms: C12_15  and  C30_39
REMARK   10  A    between atoms: C13_16  and  C29_38
REMARK   11  A    between atoms: C21_26  and  C28_37
REMARK   12  A    between atoms: C22_27  and  O3_36
REMARK   13  A    between atoms: C24_30  and  O2_35
REMARK   14  A    between atoms: C25_32  and  C26_33
REMARK   15  A    between atoms: C25_32  and  C27_34
REMARK                            x       y       z     vdW  Elec       q    Type
REMARK                         _______ _______ _______ _____ _____    ______ ____
ROOT
ATOM      3  C   UNL     1      46.322  19.102  21.126  0.00  0.00    -0.000 C 
ATOM      4  C   UNL     1      47.354  19.897  20.284  0.00  0.00    +0.008 C 
ATOM      5  C   UNL     1      47.941  18.893  19.247  0.00  0.00    +0.018 C 
ATOM      6  C   UNL     1      47.671  17.541  19.923  0.00  0.00    -0.026 C 
ATOM      7  C   UNL     1      48.647  17.335  21.083  0.00  0.00    +0.036 C 
ATOM      8  C   UNL     1      47.645  16.338  19.023  0.00  0.00    -0.080 C 
ATOM      9  C   UNL     1      48.072  16.416  17.805  0.00  0.00    -0.067 C 
ATOM     10  C   UNL     1      48.057  15.235  16.879  0.00  0.00    +0.053 C 
ATOM     11  C   UNL     1      48.224  13.932  17.681  0.00  0.00    +0.031 C 
ATOM     12  C   UNL     1      47.113  13.852  18.722  0.00  0.00    -0.026 C 
ATOM     13  C   UNL     1      47.367  12.676  19.688  0.00  0.00    +0.029 C 
ATOM     14  C   UNL     1      45.754  13.637  18.068  0.00  0.00    +0.184 C 
ATOM     17  C   UNL     1      45.777  12.463  17.088  0.00  0.00    -0.042 C 
ATOM     18  C   UNL     1      46.854  12.648  16.029  0.00  0.00    +0.174 C 
ATOM     21  C   UNL     1      48.231  12.782  16.681  0.00  0.00    -0.046 C 
ATOM     22  C   UNL     1      49.246  13.081  15.555  0.00  0.00    +0.026 C 
ATOM     23  C   UNL     1      48.664  11.448  17.288  0.00  0.00    +0.036 C 
ATOM     24  C   UNL     1      47.105  15.075  19.633  0.00  0.00    +0.027 C 
ATOM     25  C   UNL     1      45.744  15.318  20.274  0.00  0.00    +0.045 C 
ATOM     26  C   UNL     1      45.752  16.556  21.189  0.00  0.00    +0.013 C 
ATOM     27  C   UNL     1      46.212  17.756  20.410  0.00  0.00    -0.042 C 
ATOM     28  C   UNL     1      45.285  17.955  19.202  0.00  0.00    +0.020 C 
ENDROOT
BRANCH   3   2
ATOM      1  C   UNL     1      44.334  19.731  22.504  0.00  0.00    +0.013 C 
ATOM      2  C   UNL     1      44.967  19.814  21.113  0.00  0.00    -0.010 C 
BRANCH   2  29
ATOM     29  C   UNL     1      45.167  21.282  20.730  0.00  0.00    +0.013 C 
BRANCH  29  30
ATOM     30  C   UNL     1      44.546  21.539  19.355  0.00  0.00    +0.043 C 
BRANCH  30  31
ATOM     31  C   UNL     1      43.133  21.015  19.335  0.00  0.00    -0.012 C 
ATOM     32  C   UNL     1      42.135  21.831  19.106  0.00  0.00    -0.158 C 
ATOM     36  C   UNL     1      42.384  23.312  18.993  0.00  0.00    +0.083 C 
BRANCH  32  33
ATOM     33  C   UNL     1      40.737  21.287  18.958  0.00  0.00    +0.222 C 
BRANCH  33  34
ATOM     34  O   UNL     1      39.969  22.166  18.135  0.00  0.00    -0.572 OA
ATOM     35  H   UNL     1      39.160  22.492  18.555  0.00  0.00    +0.382 HD
ENDBRANCH  33  34
ENDBRANCH  32  33
ENDBRANCH  30  31
ENDBRANCH  29  30
ENDBRANCH   2  29
ENDBRANCH   3   2
BRANCH  14  15
ATOM     15  O   UNL     1      44.780  13.310  19.073  0.00  0.00    -0.559 OA
ATOM     16  H   UNL     1      45.098  12.686  19.741  0.00  0.00    +0.371 HD
ENDBRANCH  14  15
BRANCH  18  19
ATOM     19  O   UNL     1      46.858  11.519  15.148  0.00  0.00    -0.562 OA
ATOM     20  H   UNL     1      46.233  11.591  14.414  0.00  0.00    +0.375 HD
ENDBRANCH  18  19
TORSDOF 8
ENDMDL
MODEL 7
REMARK VINA RESULT:      -5.9      3.271      7.602
REMARK  Name = ZINC95486245
REMARK  15 active torsions:
REMARK  status: ('A' for Active; 'I' for Inactive)
REMARK    1  A    between atoms: C1_1  and  C2_2
REMARK    2  A    between atoms: C2_2  and  C3_4
REMARK    3  A    between atoms: C2_2  and  C9_11
REMARK    4  A    between atoms: C3_4  and  C4_5
REMARK    5  A    between atoms: C4_5  and  C5_6
REMARK    6  A    between atoms: C6_7  and  C7_8
REMARK    7  A    between atoms: C6_7  and  C8_9
REMARK    8  A    between atoms: C8_9  and  O1_10
REMARK    9  A    between atoms: C12_15  and  C30_39
REMARK   10  A    between atoms: C13_16  and  C29_38
REMARK   11  A    between atoms: C21_26  and  C28_37
REMARK   12  A    between atoms: C22_27  and  O3_36
REMARK   13  A    between atoms: C24_30  and  O2_35
REMARK   14  A    between atoms: C25_32  and  C26_33
REMARK   15  A    between atoms: C25_32  and  C27_34
REMARK                            x       y       z     vdW  Elec       q    Type
REMARK                         _______ _______ _______ _____ _____    ______ ____
ROOT
ATOM      3  C   UNL     1      49.061  14.372  18.003  0.00  0.00    -0.000 C 
ATOM      4  C   UNL     1      47.856  13.398  18.080  0.00  0.00    +0.008 C 
ATOM      5  C   UNL     1      46.669  14.214  18.673  0.00  0.00    +0.018 C 
ATOM      6  C   UNL     1      47.397  15.347  19.412  0.00  0.00    -0.026 C 
ATOM      7  C   UNL     1      48.025  14.808  20.699  0.00  0.00    +0.036 C 
ATOM      8  C   UNL     1      46.597  16.589  19.683  0.00  0.00    -0.080 C 
ATOM      9  C   UNL     1      45.313  16.594  19.527  0.00  0.00    -0.067 C 
ATOM     10  C   UNL     1      44.484  17.819  19.786  0.00  0.00    +0.053 C 
ATOM     11  C   UNL     1      45.139  18.677  20.884  0.00  0.00    +0.031 C 
ATOM     12  C   UNL     1      46.556  19.032  20.448  0.00  0.00    -0.026 C 
ATOM     13  C   UNL     1      47.321  19.703  21.608  0.00  0.00    +0.029 C 
ATOM     14  C   UNL     1      46.550  19.996  19.269  0.00  0.00    +0.184 C 
ATOM     17  C   UNL     1      45.656  21.208  19.535  0.00  0.00    -0.042 C 
ATOM     18  C   UNL     1      44.237  20.784  19.883  0.00  0.00    +0.174 C 
ATOM     21  C   UNL     1      44.234  19.882  21.117  0.00  0.00    -0.046 C 
ATOM     22  C   UNL     1      42.781  19.403  21.334  0.00  0.00    +0.026 C 
ATOM     23  C   UNL     1      44.598  20.685  22.365  0.00  0.00    +0.036 C 
ATOM     24  C   UNL     1      47.381  17.786  20.144  0.00  0.00    +0.027 C 
ATOM     25  C   UNL     1      48.544  18.070  19.201  0.00  0.00    +0.045 C 
ATOM     26  C   UNL     1      49.365  16.802  18.903  0.00  0.00    +0.013 C 
ATOM     27  C   UNL     1      48.463  15.734  18.351  0.00  0.00    -0.042 C 
ATOM     28  C   UNL     1      47.770  16.266  17.089  0.00  0.00    +0.020 C 
ENDROOT
BRANCH   3   2
ATOM      1  C   UNL     1      51.158  14.453  16.646  0.00  0.00    +0.013 C 
ATOM      2  C   UNL     1      49.630  14.398  16.582  0.00  0.00    -0.010 C 
BRANCH   2  29
ATOM     29  C   UNL     1      49.196  13.135  15.836  0.00  0.00    +0.013 C 
BRANCH  29  30
ATOM     30  C   UNL     1      50.384  12.572  15.053  0.00  0.00    +0.043 C 
BRANCH  30  31
ATOM     31  C   UNL     1      50.123  12.709  13.575  0.00  0.00    -0.012 C 
ATOM     32  C   UNL     1      51.048  13.201  12.790  0.00  0.00    -0.158 C 
ATOM     36  C   UNL     1      52.323  13.749  13.377  0.00  0.00    +0.083 C 
BRANCH  32  33
ATOM     33  C   UNL     1      50.837  13.219  11.298  0.00  0.00    +0.222 C 
BRANCH  33  34
ATOM     34  O   UNL     1      51.836  14.036  10.685  0.00  0.00    -0.572 OA
ATOM     35  H   UNL     1      51.791  14.054   9.718  0.00  0.00    +0.382 HD
ENDBRANCH  33  34
ENDBRANCH  32  33
ENDBRANCH  30  31
ENDBRANCH  29  30
ENDBRANCH   2  29
ENDBRANCH   3   2
BRANCH  14  15
ATOM     15  O   UNL     1      47.876  20.506  19.054  0.00  0.00    -0.559 OA
ATOM     16  H   UNL     1      48.554  20.084  19.601  0.00  0.00    +0.371 HD
ENDBRANCH  14  15
BRANCH  18  19
ATOM     19  O   UNL     1      43.441  21.945  20.147  0.00  0.00    -0.562 OA
ATOM     20  H   UNL     1      43.384  22.178  21.083  0.00  0.00    +0.375 HD
ENDBRANCH  18  19
TORSDOF 8
ENDMDL
MODEL 8
REMARK VINA RESULT:      -5.9      1.932      7.647
REMARK  Name = ZINC95486245
REMARK  15 active torsions:
REMARK  status: ('A' for Active; 'I' for Inactive)
REMARK    1  A    between atoms: C1_1  and  C2_2
REMARK    2  A    between atoms: C2_2  and  C3_4
REMARK    3  A    between atoms: C2_2  and  C9_11
REMARK    4  A    between atoms: C3_4  and  C4_5
REMARK    5  A    between atoms: C4_5  and  C5_6
REMARK    6  A    between atoms: C6_7  and  C7_8
REMARK    7  A    between atoms: C6_7  and  C8_9
REMARK    8  A    between atoms: C8_9  and  O1_10
REMARK    9  A    between atoms: C12_15  and  C30_39
REMARK   10  A    between atoms: C13_16  and  C29_38
REMARK   11  A    between atoms: C21_26  and  C28_37
REMARK   12  A    between atoms: C22_27  and  O3_36
REMARK   13  A    between atoms: C24_30  and  O2_35
REMARK   14  A    between atoms: C25_32  and  C26_33
REMARK   15  A    between atoms: C25_32  and  C27_34
REMARK                            x       y       z     vdW  Elec       q    Type
REMARK                         _______ _______ _______ _____ _____    ______ ____
ROOT
ATOM      3  C   UNL     1      47.561  12.645  18.721  0.00  0.00    -0.000 C 
ATOM      4  C   UNL     1      46.164  13.305  18.575  0.00  0.00    +0.008 C 
ATOM      5  C   UNL     1      46.405  14.844  18.572  0.00  0.00    +0.018 C 
ATOM      6  C   UNL     1      47.762  14.958  19.281  0.00  0.00    -0.026 C 
ATOM      7  C   UNL     1      47.586  14.714  20.782  0.00  0.00    +0.036 C 
ATOM      8  C   UNL     1      48.543  16.215  19.029  0.00  0.00    -0.080 C 
ATOM      9  C   UNL     1      47.989  17.233  18.455  0.00  0.00    -0.067 C 
ATOM     10  C   UNL     1      48.742  18.504  18.185  0.00  0.00    +0.053 C 
ATOM     11  C   UNL     1      49.831  18.709  19.254  0.00  0.00    +0.031 C 
ATOM     12  C   UNL     1      50.750  17.493  19.256  0.00  0.00    -0.026 C 
ATOM     13  C   UNL     1      51.721  17.558  20.454  0.00  0.00    +0.029 C 
ATOM     14  C   UNL     1      51.582  17.423  17.982  0.00  0.00    +0.184 C 
ATOM     17  C   UNL     1      52.296  18.744  17.699  0.00  0.00    -0.042 C 
ATOM     18  C   UNL     1      51.311  19.902  17.628  0.00  0.00    +0.174 C 
ATOM     21  C   UNL     1      50.533  20.026  18.938  0.00  0.00    -0.046 C 
ATOM     22  C   UNL     1      49.479  21.140  18.745  0.00  0.00    +0.026 C 
ATOM     23  C   UNL     1      51.451  20.511  20.059  0.00  0.00    +0.036 C 
ATOM     24  C   UNL     1      49.975  16.201  19.487  0.00  0.00    +0.027 C 
ATOM     25  C   UNL     1      50.706  14.976  18.951  0.00  0.00    +0.045 C 
ATOM     26  C   UNL     1      49.909  13.680  19.190  0.00  0.00    +0.013 C 
ATOM     27  C   UNL     1      48.541  13.809  18.584  0.00  0.00    -0.042 C 
ATOM     28  C   UNL     1      48.683  14.114  17.086  0.00  0.00    +0.020 C 
ENDROOT
BRANCH   3   2
ATOM      1  C   UNL     1      48.161  10.277  18.194  0.00  0.00    +0.013 C 
ATOM      2  C   UNL     1      47.788  11.634  17.594  0.00  0.00    -0.010 C 
BRANCH   2  29
ATOM     29  C   UNL     1      46.507  11.493  16.770  0.00  0.00    +0.013 C 
BRANCH  29  30
ATOM     30  C   UNL     1      46.855  10.992  15.367  0.00  0.00    +0.043 C 
BRANCH  30  31
ATOM     31  C   UNL     1      47.674  12.035  14.650  0.00  0.00    -0.012 C 
ATOM     32  C   UNL     1      48.903  11.767  14.286  0.00  0.00    -0.158 C 
ATOM     36  C   UNL     1      49.544  10.467  14.697  0.00  0.00    +0.083 C 
BRANCH  32  33
ATOM     33  C   UNL     1      49.676  12.760  13.458  0.00  0.00    +0.222 C 
BRANCH  33  34
ATOM     34  O   UNL     1      48.863  13.214  12.375  0.00  0.00    -0.572 OA
ATOM     35  H   UNL     1      48.132  13.788  12.645  0.00  0.00    +0.382 HD
ENDBRANCH  33  34
ENDBRANCH  32  33
ENDBRANCH  30  31
ENDBRANCH  29  30
ENDBRANCH   2  29
ENDBRANCH   3   2
BRANCH  14  15
ATOM     15  O   UNL     1      52.609  16.427  18.129  0.00  0.00    -0.559 OA
ATOM     16  H   UNL     1      53.348  16.532  17.513  0.00  0.00    +0.371 HD
ENDBRANCH  14  15
BRANCH  18  19
ATOM     19  O   UNL     1      52.021  21.122  17.385  0.00  0.00    -0.562 OA
ATOM     20  H   UNL     1      51.857  21.810  18.043  0.00  0.00    +0.375 HD
ENDBRANCH  18  19
TORSDOF 8
ENDMDL
MODEL 9
REMARK VINA RESULT:      -5.8      2.514      3.736
REMARK  Name = ZINC95486245
REMARK  15 active torsions:
REMARK  status: ('A' for Active; 'I' for Inactive)
REMARK    1  A    between atoms: C1_1  and  C2_2
REMARK    2  A    between atoms: C2_2  and  C3_4
REMARK    3  A    between atoms: C2_2  and  C9_11
REMARK    4  A    between atoms: C3_4  and  C4_5
REMARK    5  A    between atoms: C4_5  and  C5_6
REMARK    6  A    between atoms: C6_7  and  C7_8
REMARK    7  A    between atoms: C6_7  and  C8_9
REMARK    8  A    between atoms: C8_9  and  O1_10
REMARK    9  A    between atoms: C12_15  and  C30_39
REMARK   10  A    between atoms: C13_16  and  C29_38
REMARK   11  A    between atoms: C21_26  and  C28_37
REMARK   12  A    between atoms: C22_27  and  O3_36
REMARK   13  A    between atoms: C24_30  and  O2_35
REMARK   14  A    between atoms: C25_32  and  C26_33
REMARK   15  A    between atoms: C25_32  and  C27_34
REMARK                            x       y       z     vdW  Elec       q    Type
REMARK                         _______ _______ _______ _____ _____    ______ ____
ROOT
ATOM      3  C   UNL     1      46.372  18.206  19.474  0.00  0.00    -0.000 C 
ATOM      4  C   UNL     1      47.716  18.964  19.306  0.00  0.00    +0.008 C 
ATOM      5  C   UNL     1      48.705  17.960  18.641  0.00  0.00    +0.018 C 
ATOM      6  C   UNL     1      48.084  16.605  19.010  0.00  0.00    -0.026 C 
ATOM      7  C   UNL     1      48.341  16.301  20.488  0.00  0.00    +0.036 C 
ATOM      8  C   UNL     1      48.467  15.438  18.147  0.00  0.00    -0.080 C 
ATOM      9  C   UNL     1      49.449  15.530  17.311  0.00  0.00    -0.067 C 
ATOM     10  C   UNL     1      49.856  14.383  16.431  0.00  0.00    +0.053 C 
ATOM     11  C   UNL     1      49.552  13.047  17.131  0.00  0.00    +0.031 C 
ATOM     12  C   UNL     1      48.067  13.000  17.473  0.00  0.00    -0.026 C 
ATOM     13  C   UNL     1      47.761  11.780  18.366  0.00  0.00    +0.029 C 
ATOM     14  C   UNL     1      47.210  12.891  16.219  0.00  0.00    +0.184 C 
ATOM     17  C   UNL     1      47.677  11.752  15.312  0.00  0.00    -0.042 C 
ATOM     18  C   UNL     1      49.146  11.905  14.943  0.00  0.00    +0.174 C 
ATOM     21  C   UNL     1      50.015  11.932  16.199  0.00  0.00    -0.046 C 
ATOM     22  C   UNL     1      51.468  12.205  15.749  0.00  0.00    +0.026 C 
ATOM     23  C   UNL     1      50.038  10.555  16.861  0.00  0.00    +0.036 C 
ATOM     24  C   UNL     1      47.649  14.190  18.331  0.00  0.00    +0.027 C 
ATOM     25  C   UNL     1      46.160  14.495  18.223  0.00  0.00    +0.045 C 
ATOM     26  C   UNL     1      45.755  15.699  19.093  0.00  0.00    +0.013 C 
ATOM     27  C   UNL     1      46.586  16.894  18.719  0.00  0.00    -0.042 C 
ATOM     28  C   UNL     1      46.396  17.190  17.225  0.00  0.00    +0.020 C 
ENDROOT
BRANCH   3   2
ATOM      1  C   UNL     1      43.969  18.857  19.681  0.00  0.00    +0.013 C 
ATOM      2  C   UNL     1      45.233  19.000  18.831  0.00  0.00    -0.010 C 
BRANCH   2  29
ATOM     29  C   UNL     1      45.626  20.476  18.745  0.00  0.00    +0.013 C 
BRANCH  29  30
ATOM     30  C   UNL     1      44.570  21.327  19.453  0.00  0.00    +0.043 C 
BRANCH  30  31
ATOM     31  C   UNL     1      45.197  22.611  19.932  0.00  0.00    -0.012 C 
ATOM     32  C   UNL     1      45.748  22.668  21.119  0.00  0.00    -0.158 C 
ATOM     36  C   UNL     1      45.642  21.493  22.056  0.00  0.00    +0.083 C 
BRANCH  32  33
ATOM     33  C   UNL     1      46.487  23.909  21.546  0.00  0.00    +0.222 C 
BRANCH  33  34
ATOM     34  O   UNL     1      45.667  25.056  21.314  0.00  0.00    -0.572 OA
ATOM     35  H   UNL     1      46.077  25.893  21.575  0.00  0.00    +0.382 HD
ENDBRANCH  33  34
ENDBRANCH  32  33
ENDBRANCH  30  31
ENDBRANCH  29  30
ENDBRANCH   2  29
ENDBRANCH   3   2
BRANCH  14  15
ATOM     15  O   UNL     1      45.853  12.592  16.584  0.00  0.00    -0.559 OA
ATOM     16  H   UNL     1      45.337  13.366  16.850  0.00  0.00    +0.371 HD
ENDBRANCH  14  15
BRANCH  18  19
ATOM     19  O   UNL     1      49.549  10.808  14.114  0.00  0.00    -0.562 OA
ATOM     20  H   UNL     1      48.932  10.064  14.120  0.00  0.00    +0.375 HD
ENDBRANCH  18  19
TORSDOF 8
ENDMDL
