MODEL 1
REMARK VINA RESULT:      -5.4      0.000      0.000
REMARK  Name = ZINC95485953
REMARK  6 active torsions:
REMARK  status: ('A' for Active; 'I' for Inactive)
REMARK    1  A    between atoms: C1_1  and  C2_2
REMARK    2  A    between atoms: C6_8  and  C11_15
REMARK    3  A    between atoms: C8_10  and  O3_14
REMARK    4  A    between atoms: C11_15  and  C12_16
REMARK    5  A    between atoms: C12_16  and  C13_17
REMARK    6  A    between atoms: C13_17  and  C14_19
REMARK                            x       y       z     vdW  Elec       q    Type
REMARK                         _______ _______ _______ _____ _____    ______ ____
ROOT
ATOM      1  C   UNL     1      50.113  20.170  19.456  0.00  0.00    +0.083 C 
ATOM      2  C   UNL     1      48.646  20.507  19.179  0.00  0.00    +0.176 C 
ATOM      3  C   UNL     1      47.859  19.210  18.936  0.00  0.00    +0.028 C 
ATOM      4  C   UNL     1      46.411  19.601  18.701  0.00  0.00    +0.398 C 
ATOM      5  C   UNL     1      45.875  20.676  19.549  0.00  0.00    -0.263 A 
ATOM      6  C   UNL     1      44.502  20.935  19.589  0.00  0.00    +0.029 A 
ATOM     12  C   UNL     1      44.024  21.943  20.378  0.00  0.00    -0.051 A 
ATOM     13  C   UNL     1      44.899  22.710  21.142  0.00  0.00    +0.185 A 
ATOM     16  C   UNL     1      46.264  22.463  21.115  0.00  0.00    -0.052 A 
ATOM     17  C   UNL     1      46.764  21.443  20.322  0.00  0.00    +0.204 A 
ATOM     18  O   UNL     1      45.732  19.055  17.857  0.00  0.00    -0.436 OA
ATOM     19  O   UNL     1      48.095  21.191  20.304  0.00  0.00    -0.305 OA
ENDROOT
BRANCH  13  14
ATOM     14  O   UNL     1      44.413  23.711  21.920  0.00  0.00    -0.494 OA
ATOM     15  H   UNL     1      44.293  24.548  21.453  0.00  0.00    +0.402 HD
ENDBRANCH  13  14
BRANCH   6   7
ATOM      7  C   UNL     1      43.552  20.108  18.762  0.00  0.00    +0.097 C 
BRANCH   7   8
ATOM      8  C   UNL     1      42.210  19.994  19.487  0.00  0.00    +0.041 C 
BRANCH   8   9
ATOM      9  C   UNL     1      41.090  20.278  18.520  0.00  0.00    +0.359 C 
ATOM     10  C   UNL     1      40.127  21.405  18.792  0.00  0.00    +0.060 C 
ATOM     11  O   UNL     1      40.963  19.601  17.527  0.00  0.00    -0.459 OA
ENDBRANCH   8   9
ENDBRANCH   7   8
ENDBRANCH   6   7
TORSDOF 4
ENDMDL
MODEL 2
REMARK VINA RESULT:      -5.3      1.795      5.409
REMARK  Name = ZINC95485953
REMARK  6 active torsions:
REMARK  status: ('A' for Active; 'I' for Inactive)
REMARK    1  A    between atoms: C1_1  and  C2_2
REMARK    2  A    between atoms: C6_8  and  C11_15
REMARK    3  A    between atoms: C8_10  and  O3_14
REMARK    4  A    between atoms: C11_15  and  C12_16
REMARK    5  A    between atoms: C12_16  and  C13_17
REMARK    6  A    between atoms: C13_17  and  C14_19
REMARK                            x       y       z     vdW  Elec       q    Type
REMARK                         _______ _______ _______ _____ _____    ______ ____
ROOT
ATOM      1  C   UNL     1      39.122  21.155  18.375  0.00  0.00    +0.083 C 
ATOM      2  C   UNL     1      40.467  21.104  19.103  0.00  0.00    +0.176 C 
ATOM      3  C   UNL     1      41.232  19.842  18.676  0.00  0.00    +0.028 C 
ATOM      4  C   UNL     1      42.566  19.859  19.400  0.00  0.00    +0.398 C 
ATOM      5  C   UNL     1      43.238  21.163  19.509  0.00  0.00    -0.263 A 
ATOM      6  C   UNL     1      44.569  21.247  19.925  0.00  0.00    +0.029 A 
ATOM     12  C   UNL     1      45.173  22.468  20.025  0.00  0.00    -0.051 A 
ATOM     13  C   UNL     1      44.468  23.627  19.713  0.00  0.00    +0.185 A 
ATOM     16  C   UNL     1      43.147  23.559  19.296  0.00  0.00    -0.052 A 
ATOM     17  C   UNL     1      42.521  22.328  19.186  0.00  0.00    +0.204 A 
ATOM     18  O   UNL     1      43.053  18.850  19.865  0.00  0.00    -0.436 OA
ATOM     19  O   UNL     1      41.235  22.258  18.766  0.00  0.00    -0.305 OA
ENDROOT
BRANCH  13  14
ATOM     14  O   UNL     1      45.078  24.835  19.820  0.00  0.00    -0.494 OA
ATOM     15  H   UNL     1      45.729  25.009  19.127  0.00  0.00    +0.402 HD
ENDBRANCH  13  14
BRANCH   6   7
ATOM      7  C   UNL     1      45.336  19.995  20.266  0.00  0.00    +0.097 C 
BRANCH   7   8
ATOM      8  C   UNL     1      46.777  20.127  19.771  0.00  0.00    +0.041 C 
BRANCH   8   9
ATOM      9  C   UNL     1      47.077  19.020  18.794  0.00  0.00    +0.359 C 
ATOM     10  C   UNL     1      45.991  18.500  17.888  0.00  0.00    +0.060 C 
ATOM     11  O   UNL     1      48.187  18.549  18.738  0.00  0.00    -0.459 OA
ENDBRANCH   8   9
ENDBRANCH   7   8
ENDBRANCH   6   7
TORSDOF 4
ENDMDL
MODEL 3
REMARK VINA RESULT:      -5.0      2.358      5.916
REMARK  Name = ZINC95485953
REMARK  6 active torsions:
REMARK  status: ('A' for Active; 'I' for Inactive)
REMARK    1  A    between atoms: C1_1  and  C2_2
REMARK    2  A    between atoms: C6_8  and  C11_15
REMARK    3  A    between atoms: C8_10  and  O3_14
REMARK    4  A    between atoms: C11_15  and  C12_16
REMARK    5  A    between atoms: C12_16  and  C13_17
REMARK    6  A    between atoms: C13_17  and  C14_19
REMARK                            x       y       z     vdW  Elec       q    Type
REMARK                         _______ _______ _______ _____ _____    ______ ____
ROOT
ATOM      1  C   UNL     1      39.561  21.193  18.512  0.00  0.00    +0.083 C 
ATOM      2  C   UNL     1      40.957  20.641  18.808  0.00  0.00    +0.176 C 
ATOM      3  C   UNL     1      41.914  21.804  19.112  0.00  0.00    +0.028 C 
ATOM      4  C   UNL     1      43.269  21.198  19.429  0.00  0.00    +0.398 C 
ATOM      5  C   UNL     1      43.268  19.974  20.243  0.00  0.00    -0.263 A 
ATOM      6  C   UNL     1      44.453  19.484  20.798  0.00  0.00    +0.029 A 
ATOM     12  C   UNL     1      44.432  18.342  21.546  0.00  0.00    -0.051 A 
ATOM     13  C   UNL     1      43.234  17.665  21.758  0.00  0.00    +0.185 A 
ATOM     16  C   UNL     1      42.048  18.140  21.216  0.00  0.00    -0.052 A 
ATOM     17  C   UNL     1      42.053  19.299  20.457  0.00  0.00    +0.204 A 
ATOM     18  O   UNL     1      44.300  21.699  19.032  0.00  0.00    -0.436 OA
ATOM     19  O   UNL     1      40.895  19.772  19.938  0.00  0.00    -0.305 OA
ENDROOT
BRANCH  13  14
ATOM     14  O   UNL     1      43.225  16.528  22.500  0.00  0.00    -0.494 OA
ATOM     15  H   UNL     1      43.048  16.674  23.439  0.00  0.00    +0.402 HD
ENDBRANCH  13  14
BRANCH   6   7
ATOM      7  C   UNL     1      45.753  20.214  20.570  0.00  0.00    +0.097 C 
BRANCH   7   8
ATOM      8  C   UNL     1      46.232  20.828  21.886  0.00  0.00    +0.041 C 
BRANCH   8   9
ATOM      9  C   UNL     1      45.715  22.239  22.000  0.00  0.00    +0.359 C 
ATOM     10  C   UNL     1      46.547  23.389  21.492  0.00  0.00    +0.060 C 
ATOM     11  O   UNL     1      44.636  22.448  22.499  0.00  0.00    -0.459 OA
ENDBRANCH   8   9
ENDBRANCH   7   8
ENDBRANCH   6   7
TORSDOF 4
ENDMDL
MODEL 4
REMARK VINA RESULT:      -5.0     20.417     21.867
REMARK  Name = ZINC95485953
REMARK  6 active torsions:
REMARK  status: ('A' for Active; 'I' for Inactive)
REMARK    1  A    between atoms: C1_1  and  C2_2
REMARK    2  A    between atoms: C6_8  and  C11_15
REMARK    3  A    between atoms: C8_10  and  O3_14
REMARK    4  A    between atoms: C11_15  and  C12_16
REMARK    5  A    between atoms: C12_16  and  C13_17
REMARK    6  A    between atoms: C13_17  and  C14_19
REMARK                            x       y       z     vdW  Elec       q    Type
REMARK                         _______ _______ _______ _____ _____    ______ ____
ROOT
ATOM      1  C   UNL     1      51.437  32.221  -0.002  0.00  0.00    +0.083 C 
ATOM      2  C   UNL     1      51.960  32.025   1.422  0.00  0.00    +0.176 C 
ATOM      3  C   UNL     1      53.431  32.461   1.493  0.00  0.00    +0.028 C 
ATOM      4  C   UNL     1      53.885  32.277   2.929  0.00  0.00    +0.398 C 
ATOM      5  C   UNL     1      52.923  32.652   3.976  0.00  0.00    -0.263 A 
ATOM      6  C   UNL     1      53.327  32.760   5.310  0.00  0.00    +0.029 A 
ATOM     12  C   UNL     1      52.416  33.105   6.268  0.00  0.00    -0.051 A 
ATOM     13  C   UNL     1      51.090  33.348   5.921  0.00  0.00    +0.185 A 
ATOM     16  C   UNL     1      50.676  33.248   4.601  0.00  0.00    -0.052 A 
ATOM     17  C   UNL     1      51.588  32.903   3.616  0.00  0.00    +0.204 A 
ATOM     18  O   UNL     1      54.985  31.842   3.200  0.00  0.00    -0.436 OA
ATOM     19  O   UNL     1      51.189  32.816   2.325  0.00  0.00    -0.305 OA
ENDROOT
BRANCH  13  14
ATOM     14  O   UNL     1      50.194  33.687   6.883  0.00  0.00    -0.494 OA
ATOM     15  H   UNL     1      49.339  33.976   6.539  0.00  0.00    +0.402 HD
ENDBRANCH  13  14
BRANCH   6   7
ATOM      7  C   UNL     1      54.761  32.495   5.690  0.00  0.00    +0.097 C 
BRANCH   7   8
ATOM      8  C   UNL     1      55.376  33.765   6.281  0.00  0.00    +0.041 C 
BRANCH   8   9
ATOM      9  C   UNL     1      56.434  34.293   5.347  0.00  0.00    +0.359 C 
ATOM     10  C   UNL     1      57.872  33.882   5.529  0.00  0.00    +0.060 C 
ATOM     11  O   UNL     1      56.130  35.047   4.454  0.00  0.00    -0.459 OA
ENDBRANCH   8   9
ENDBRANCH   7   8
ENDBRANCH   6   7
TORSDOF 4
ENDMDL
MODEL 5
REMARK VINA RESULT:      -5.0      3.501      6.407
REMARK  Name = ZINC95485953
REMARK  6 active torsions:
REMARK  status: ('A' for Active; 'I' for Inactive)
REMARK    1  A    between atoms: C1_1  and  C2_2
REMARK    2  A    between atoms: C6_8  and  C11_15
REMARK    3  A    between atoms: C8_10  and  O3_14
REMARK    4  A    between atoms: C11_15  and  C12_16
REMARK    5  A    between atoms: C12_16  and  C13_17
REMARK    6  A    between atoms: C13_17  and  C14_19
REMARK                            x       y       z     vdW  Elec       q    Type
REMARK                         _______ _______ _______ _____ _____    ______ ____
ROOT
ATOM      1  C   UNL     1      51.314  14.829  16.600  0.00  0.00    +0.083 C 
ATOM      2  C   UNL     1      50.715  16.181  16.993  0.00  0.00    +0.176 C 
ATOM      3  C   UNL     1      50.616  16.272  18.523  0.00  0.00    +0.028 C 
ATOM      4  C   UNL     1      50.048  17.641  18.855  0.00  0.00    +0.398 C 
ATOM      5  C   UNL     1      50.539  18.769  18.050  0.00  0.00    -0.263 A 
ATOM      6  C   UNL     1      50.278  20.087  18.434  0.00  0.00    +0.029 A 
ATOM     12  C   UNL     1      50.738  21.120  17.669  0.00  0.00    -0.051 A 
ATOM     13  C   UNL     1      51.466  20.866  16.509  0.00  0.00    +0.185 A 
ATOM     16  C   UNL     1      51.735  19.563  16.117  0.00  0.00    -0.052 A 
ATOM     17  C   UNL     1      51.279  18.503  16.884  0.00  0.00    +0.204 A 
ATOM     18  O   UNL     1      49.232  17.795  19.739  0.00  0.00    -0.436 OA
ATOM     19  O   UNL     1      51.552  17.231  16.510  0.00  0.00    -0.305 OA
ENDROOT
BRANCH  13  14
ATOM     14  O   UNL     1      51.914  21.902  15.756  0.00  0.00    -0.494 OA
ATOM     15  H   UNL     1      52.419  22.559  16.253  0.00  0.00    +0.402 HD
ENDBRANCH  13  14
BRANCH   6   7
ATOM      7  C   UNL     1      49.489  20.367  19.687  0.00  0.00    +0.097 C 
BRANCH   7   8
ATOM      8  C   UNL     1      48.225  21.152  19.330  0.00  0.00    +0.041 C 
BRANCH   8   9
ATOM      9  C   UNL     1      47.015  20.279  19.540  0.00  0.00    +0.359 C 
ATOM     10  C   UNL     1      46.428  19.515  18.381  0.00  0.00    +0.060 C 
ATOM     11  O   UNL     1      46.515  20.193  20.635  0.00  0.00    -0.459 OA
ENDBRANCH   8   9
ENDBRANCH   7   8
ENDBRANCH   6   7
TORSDOF 4
ENDMDL
MODEL 6
REMARK VINA RESULT:      -4.8      3.068      6.401
REMARK  Name = ZINC95485953
REMARK  6 active torsions:
REMARK  status: ('A' for Active; 'I' for Inactive)
REMARK    1  A    between atoms: C1_1  and  C2_2
REMARK    2  A    between atoms: C6_8  and  C11_15
REMARK    3  A    between atoms: C8_10  and  O3_14
REMARK    4  A    between atoms: C11_15  and  C12_16
REMARK    5  A    between atoms: C12_16  and  C13_17
REMARK    6  A    between atoms: C13_17  and  C14_19
REMARK                            x       y       z     vdW  Elec       q    Type
REMARK                         _______ _______ _______ _____ _____    ______ ____
ROOT
ATOM      1  C   UNL     1      46.227  14.580  18.103  0.00  0.00    +0.083 C 
ATOM      2  C   UNL     1      46.822  15.875  18.658  0.00  0.00    +0.176 C 
ATOM      3  C   UNL     1      48.278  16.013  18.186  0.00  0.00    +0.028 C 
ATOM      4  C   UNL     1      48.806  17.325  18.737  0.00  0.00    +0.398 C 
ATOM      5  C   UNL     1      47.880  18.468  18.714  0.00  0.00    -0.263 A 
ATOM      6  C   UNL     1      48.341  19.764  18.959  0.00  0.00    +0.029 A 
ATOM     12  C   UNL     1      47.464  20.811  18.938  0.00  0.00    -0.051 A 
ATOM     13  C   UNL     1      46.115  20.591  18.674  0.00  0.00    +0.185 A 
ATOM     16  C   UNL     1      45.643  19.310  18.427  0.00  0.00    -0.052 A 
ATOM     17  C   UNL     1      46.521  18.238  18.441  0.00  0.00    +0.204 A 
ATOM     18  O   UNL     1      49.933  17.426  19.174  0.00  0.00    -0.436 OA
ATOM     19  O   UNL     1      46.065  16.988  18.187  0.00  0.00    -0.305 OA
ENDROOT
BRANCH  13  14
ATOM     14  O   UNL     1      45.252  21.639  18.660  0.00  0.00    -0.494 OA
ATOM     15  H   UNL     1      45.181  22.077  17.802  0.00  0.00    +0.402 HD
ENDBRANCH  13  14
BRANCH   6   7
ATOM      7  C   UNL     1      49.800  20.006  19.246  0.00  0.00    +0.097 C 
BRANCH   7   8
ATOM      8  C   UNL     1      50.311  21.150  18.369  0.00  0.00    +0.041 C 
BRANCH   8   9
ATOM      9  C   UNL     1      51.541  20.702  17.623  0.00  0.00    +0.359 C 
ATOM     10  C   UNL     1      52.494  19.723  18.260  0.00  0.00    +0.060 C 
ATOM     11  O   UNL     1      51.763  21.127  16.515  0.00  0.00    -0.459 OA
ENDBRANCH   8   9
ENDBRANCH   7   8
ENDBRANCH   6   7
TORSDOF 4
ENDMDL
MODEL 7
REMARK VINA RESULT:      -4.8      3.758      5.183
REMARK  Name = ZINC95485953
REMARK  6 active torsions:
REMARK  status: ('A' for Active; 'I' for Inactive)
REMARK    1  A    between atoms: C1_1  and  C2_2
REMARK    2  A    between atoms: C6_8  and  C11_15
REMARK    3  A    between atoms: C8_10  and  O3_14
REMARK    4  A    between atoms: C11_15  and  C12_16
REMARK    5  A    between atoms: C12_16  and  C13_17
REMARK    6  A    between atoms: C13_17  and  C14_19
REMARK                            x       y       z     vdW  Elec       q    Type
REMARK                         _______ _______ _______ _____ _____    ______ ____
ROOT
ATOM      1  C   UNL     1      45.354  13.243  22.118  0.00  0.00    +0.083 C 
ATOM      2  C   UNL     1      44.809  14.505  21.445  0.00  0.00    +0.176 C 
ATOM      3  C   UNL     1      44.577  15.592  22.505  0.00  0.00    +0.028 C 
ATOM      4  C   UNL     1      44.070  16.825  21.780  0.00  0.00    +0.398 C 
ATOM      5  C   UNL     1      44.703  17.135  20.489  0.00  0.00    -0.263 A 
ATOM      6  C   UNL     1      44.492  18.370  19.869  0.00  0.00    +0.029 A 
ATOM     12  C   UNL     1      45.084  18.636  18.668  0.00  0.00    -0.051 A 
ATOM     13  C   UNL     1      45.897  17.683  18.060  0.00  0.00    +0.185 A 
ATOM     16  C   UNL     1      46.118  16.454  18.664  0.00  0.00    -0.052 A 
ATOM     17  C   UNL     1      45.527  16.170  19.885  0.00  0.00    +0.204 A 
ATOM     18  O   UNL     1      43.188  17.519  22.241  0.00  0.00    -0.436 OA
ATOM     19  O   UNL     1      45.752  14.976  20.483  0.00  0.00    -0.305 OA
ENDROOT
BRANCH  13  14
ATOM     14  O   UNL     1      46.477  17.958  16.864  0.00  0.00    -0.494 OA
ATOM     15  H   UNL     1      45.936  17.717  16.100  0.00  0.00    +0.402 HD
ENDBRANCH  13  14
BRANCH   6   7
ATOM      7  C   UNL     1      43.611  19.404  20.523  0.00  0.00    +0.097 C 
BRANCH   7   8
ATOM      8  C   UNL     1      43.104  20.385  19.466  0.00  0.00    +0.041 C 
BRANCH   8   9
ATOM      9  C   UNL     1      41.607  20.262  19.342  0.00  0.00    +0.359 C 
ATOM     10  C   UNL     1      40.831  21.273  18.538  0.00  0.00    +0.060 C 
ATOM     11  O   UNL     1      41.029  19.353  19.889  0.00  0.00    -0.459 OA
ENDBRANCH   8   9
ENDBRANCH   7   8
ENDBRANCH   6   7
TORSDOF 4
ENDMDL
MODEL 8
REMARK VINA RESULT:      -4.7      4.774      7.710
REMARK  Name = ZINC95485953
REMARK  6 active torsions:
REMARK  status: ('A' for Active; 'I' for Inactive)
REMARK    1  A    between atoms: C1_1  and  C2_2
REMARK    2  A    between atoms: C6_8  and  C11_15
REMARK    3  A    between atoms: C8_10  and  O3_14
REMARK    4  A    between atoms: C11_15  and  C12_16
REMARK    5  A    between atoms: C12_16  and  C13_17
REMARK    6  A    between atoms: C13_17  and  C14_19
REMARK                            x       y       z     vdW  Elec       q    Type
REMARK                         _______ _______ _______ _____ _____    ______ ____
ROOT
ATOM      1  C   UNL     1      48.366  21.295  21.599  0.00  0.00    +0.083 C 
ATOM      2  C   UNL     1      49.188  20.415  20.655  0.00  0.00    +0.176 C 
ATOM      3  C   UNL     1      48.321  19.248  20.158  0.00  0.00    +0.028 C 
ATOM      4  C   UNL     1      49.174  18.430  19.204  0.00  0.00    +0.398 C 
ATOM      5  C   UNL     1      50.044  19.184  18.289  0.00  0.00    -0.263 A 
ATOM      6  C   UNL     1      50.670  18.548  17.214  0.00  0.00    +0.029 A 
ATOM     12  C   UNL     1      51.479  19.264  16.379  0.00  0.00    -0.051 A 
ATOM     13  C   UNL     1      51.681  20.625  16.595  0.00  0.00    +0.185 A 
ATOM     16  C   UNL     1      51.064  21.271  17.656  0.00  0.00    -0.052 A 
ATOM     17  C   UNL     1      50.237  20.559  18.510  0.00  0.00    +0.204 A 
ATOM     18  O   UNL     1      49.139  17.218  19.198  0.00  0.00    -0.436 OA
ATOM     19  O   UNL     1      49.624  21.190  19.539  0.00  0.00    -0.305 OA
ENDROOT
BRANCH  13  14
ATOM     14  O   UNL     1      52.490  21.326  15.760  0.00  0.00    -0.494 OA
ATOM     15  H   UNL     1      52.513  20.983  14.856  0.00  0.00    +0.402 HD
ENDBRANCH  13  14
BRANCH   6   7
ATOM      7  C   UNL     1      50.456  17.074  16.978  0.00  0.00    +0.097 C 
BRANCH   7   8
ATOM      8  C   UNL     1      51.809  16.362  16.937  0.00  0.00    +0.041 C 
BRANCH   8   9
ATOM      9  C   UNL     1      52.190  15.924  18.327  0.00  0.00    +0.359 C 
ATOM     10  C   UNL     1      53.256  16.670  19.086  0.00  0.00    +0.060 C 
ATOM     11  O   UNL     1      51.642  14.974  18.832  0.00  0.00    -0.459 OA
ENDBRANCH   8   9
ENDBRANCH   7   8
ENDBRANCH   6   7
TORSDOF 4
ENDMDL
MODEL 9
REMARK VINA RESULT:      -4.7      2.059      6.866
REMARK  Name = ZINC95485953
REMARK  6 active torsions:
REMARK  status: ('A' for Active; 'I' for Inactive)
REMARK    1  A    between atoms: C1_1  and  C2_2
REMARK    2  A    between atoms: C6_8  and  C11_15
REMARK    3  A    between atoms: C8_10  and  O3_14
REMARK    4  A    between atoms: C11_15  and  C12_16
REMARK    5  A    between atoms: C12_16  and  C13_17
REMARK    6  A    between atoms: C13_17  and  C14_19
REMARK                            x       y       z     vdW  Elec       q    Type
REMARK                         _______ _______ _______ _____ _____    ______ ____
ROOT
ATOM      1  C   UNL     1      43.239  20.877  19.401  0.00  0.00    +0.083 C 
ATOM      2  C   UNL     1      44.695  20.604  19.015  0.00  0.00    +0.176 C 
ATOM      3  C   UNL     1      45.600  20.837  20.233  0.00  0.00    +0.028 C 
ATOM      4  C   UNL     1      47.021  20.522  19.803  0.00  0.00    +0.398 C 
ATOM      5  C   UNL     1      47.199  19.354  18.928  0.00  0.00    -0.263 A 
ATOM      6  C   UNL     1      48.473  18.832  18.683  0.00  0.00    +0.029 A 
ATOM     12  C   UNL     1      48.617  17.751  17.862  0.00  0.00    -0.051 A 
ATOM     13  C   UNL     1      47.501  17.166  17.269  0.00  0.00    +0.185 A 
ATOM     16  C   UNL     1      46.231  17.671  17.504  0.00  0.00    -0.052 A 
ATOM     17  C   UNL     1      46.067  18.766  18.338  0.00  0.00    +0.204 A 
ATOM     18  O   UNL     1      47.962  21.198  20.164  0.00  0.00    -0.436 OA
ATOM     19  O   UNL     1      44.826  19.252  18.579  0.00  0.00    -0.305 OA
ENDROOT
BRANCH  13  14
ATOM     14  O   UNL     1      47.658  16.094  16.452  0.00  0.00    -0.494 OA
ATOM     15  H   UNL     1      48.203  16.269  15.673  0.00  0.00    +0.402 HD
ENDBRANCH  13  14
BRANCH   6   7
ATOM      7  C   UNL     1      49.683  19.463  19.322  0.00  0.00    +0.097 C 
BRANCH   7   8
ATOM      8  C   UNL     1      50.873  19.371  18.365  0.00  0.00    +0.041 C 
BRANCH   8   9
ATOM      9  C   UNL     1      51.325  20.758  17.988  0.00  0.00    +0.359 C 
ATOM     10  C   UNL     1      51.502  21.125  16.537  0.00  0.00    +0.060 C 
ATOM     11  O   UNL     1      51.546  21.575  18.849  0.00  0.00    -0.459 OA
ENDBRANCH   8   9
ENDBRANCH   7   8
ENDBRANCH   6   7
TORSDOF 4
ENDMDL
