MODEL 1
REMARK VINA RESULT:      -6.5      0.000      0.000
REMARK  Name = ZINC95485968
REMARK  22 active torsions:
REMARK  status: ('A' for Active; 'I' for Inactive)
REMARK    1  A    between atoms: C1_1  and  C2_2
REMARK    2  A    between atoms: C2_2  and  C41_49
REMARK    3  A    between atoms: C3_3  and  C4_4
REMARK    4  A    between atoms: C4_4  and  C5_5
REMARK    5  A    between atoms: C5_5  and  C6_6
REMARK    6  A    between atoms: C10_11  and  C35_43
REMARK    7  A    between atoms: C11_13  and  C33_41
REMARK    8  A    between atoms: C11_13  and  C34_42
REMARK    9  A    between atoms: C13_16  and  C26_31
REMARK   10  A    between atoms: C15_19  and  C20_25
REMARK   11  A    between atoms: C17_22  and  C18_23
REMARK   12  A    between atoms: C17_22  and  C19_24
REMARK   13  A    between atoms: C20_25  and  C21_26
REMARK   14  A    between atoms: C21_26  and  C22_27
REMARK   15  A    between atoms: C23_28  and  C24_29
REMARK   16  A    between atoms: C23_28  and  C25_30
REMARK   17  A    between atoms: C26_31  and  C27_33
REMARK   18  A    between atoms: C31_37  and  O5_39
REMARK   19  A    between atoms: C35_43  and  C36_44
REMARK   20  A    between atoms: C36_44  and  C37_45
REMARK   21  A    between atoms: C38_46  and  C39_47
REMARK   22  A    between atoms: C38_46  and  C40_48
REMARK                            x       y       z     vdW  Elec       q    Type
REMARK                         _______ _______ _______ _____ _____    ______ ____
ROOT
ATOM      7  C   UNL     1      48.692  19.862  19.522  0.00  0.00    -0.012 C 
ATOM      8  C   UNL     1      49.509  18.978  20.465  0.00  0.00    +0.079 C 
ATOM      9  C   UNL     1      48.754  17.662  20.698  0.00  0.00    -0.096 C 
ATOM     10  C   UNL     1      49.504  16.785  21.677  0.00  0.00    +0.060 C 
ATOM     11  C   UNL     1      50.533  15.886  21.014  0.00  0.00    -0.014 C 
ATOM     18  C   UNL     1      49.935  15.162  19.809  0.00  0.00    +0.115 C 
ATOM     19  C   UNL     1      48.785  14.264  20.269  0.00  0.00    +0.034 C 
ATOM     20  C   UNL     1      51.014  14.313  19.135  0.00  0.00    +0.081 C 
ATOM     21  O   UNL     1      49.442  16.136  18.883  0.00  0.00    -0.279 OA
ATOM     22  C   UNL     1      47.394  18.022  21.279  0.00  0.00    +0.387 C 
ATOM     23  O   UNL     1      47.020  17.624  22.356  0.00  0.00    -0.413 OA
ATOM     24  C   UNL     1      46.541  18.923  20.395  0.00  0.00    -0.132 C 
ATOM     31  C   UNL     1      46.377  18.202  19.075  0.00  0.00    +0.426 C 
ATOM     32  O   UNL     1      45.399  18.410  18.387  0.00  0.00    -0.415 OA
ATOM     33  C   UNL     1      47.396  17.258  18.630  0.00  0.00    -0.290 C 
ATOM     45  C   UNL     1      48.527  16.992  19.370  0.00  0.00    +0.203 C 
ATOM     46  C   UNL     1      47.344  20.209  20.156  0.00  0.00    -0.032 C 
ATOM     47  C   UNL     1      46.560  21.127  19.216  0.00  0.00    +0.046 C 
ATOM     48  C   UNL     1      47.579  20.924  21.488  0.00  0.00    +0.042 C 
ENDROOT
BRANCH  33  34
ATOM     34  C   UNL     1      47.210  16.566  17.345  0.00  0.00    +0.471 C 
ATOM     44  O   UNL     1      47.330  17.177  16.301  0.00  0.00    -0.483 OA
BRANCH  34  35
ATOM     35  C   UNL     1      46.875  15.128  17.323  0.00  0.00    -0.290 A 
ATOM     36  C   UNL     1      47.598  14.253  16.507  0.00  0.00    +0.075 A 
ATOM     37  C   UNL     1      47.285  12.912  16.488  0.00  0.00    -0.166 A 
ATOM     38  C   UNL     1      46.252  12.425  17.277  0.00  0.00    +0.283 A 
ATOM     39  O   UNL     1      45.947  11.102  17.254  0.00  0.00    -0.696 OA
ATOM     40  C   UNL     1      45.526  13.292  18.093  0.00  0.00    -0.067 A 
ATOM     43  C   UNL     1      45.840  14.637  18.122  0.00  0.00    +0.080 A 
BRANCH  40  41
ATOM     41  O   UNL     1      44.514  12.813  18.865  0.00  0.00    -0.489 OA
ATOM     42  H   UNL     1      44.715  12.795  19.811  0.00  0.00    +0.356 HD
ENDBRANCH  40  41
ENDBRANCH  34  35
ENDBRANCH  33  34
BRANCH   7   6
ATOM      6  C   UNL     1      49.464  21.151  19.239  0.00  0.00    +0.036 C 
BRANCH   6   5
ATOM      5  C   UNL     1      50.945  20.824  19.033  0.00  0.00    +0.046 C 
BRANCH   5   4
ATOM      1  C   UNL     1      51.766  18.577  17.540  0.00  0.00    +0.072 C 
ATOM      2  C   UNL     1      51.618  19.917  16.869  0.00  0.00    -0.134 C 
ATOM      3  C   UNL     1      51.843  20.044  15.384  0.00  0.00    +0.068 C 
ATOM      4  C   UNL     1      51.294  20.972  17.575  0.00  0.00    -0.059 C 
ENDBRANCH   5   4
ENDBRANCH   6   5
ENDBRANCH   7   6
BRANCH  11  12
ATOM     12  C   UNL     1      51.717  16.736  20.551  0.00  0.00    +0.029 C 
BRANCH  12  13
ATOM     13  C   UNL     1      52.924  16.463  21.452  0.00  0.00    +0.047 C 
BRANCH  13  14
ATOM     14  C   UNL     1      54.153  16.276  20.601  0.00  0.00    -0.054 C 
ATOM     15  C   UNL     1      54.679  15.084  20.463  0.00  0.00    -0.137 C 
ATOM     16  C   UNL     1      55.822  14.871  19.506  0.00  0.00    +0.069 C 
ATOM     17  C   UNL     1      54.139  13.926  21.263  0.00  0.00    +0.070 C 
ENDBRANCH  13  14
ENDBRANCH  12  13
ENDBRANCH  11  12
BRANCH  24  25
ATOM     25  C   UNL     1      45.185  19.210  21.041  0.00  0.00    +0.079 C 
BRANCH  25  26
ATOM     26  C   UNL     1      44.215  18.071  20.717  0.00  0.00    +0.047 C 
BRANCH  26  27
ATOM     27  C   UNL     1      42.891  18.333  21.388  0.00  0.00    -0.045 C 
ATOM     28  C   UNL     1      41.964  19.016  20.763  0.00  0.00    -0.139 C 
ATOM     29  C   UNL     1      40.598  19.174  21.380  0.00  0.00    +0.069 C 
ATOM     30  C   UNL     1      42.264  19.645  19.426  0.00  0.00    +0.072 C 
ENDBRANCH  26  27
ENDBRANCH  25  26
ENDBRANCH  24  25
TORSDOF 12
ENDMDL
MODEL 2
REMARK VINA RESULT:      -6.3      2.728      6.682
REMARK  Name = ZINC95485968
REMARK  22 active torsions:
REMARK  status: ('A' for Active; 'I' for Inactive)
REMARK    1  A    between atoms: C1_1  and  C2_2
REMARK    2  A    between atoms: C2_2  and  C41_49
REMARK    3  A    between atoms: C3_3  and  C4_4
REMARK    4  A    between atoms: C4_4  and  C5_5
REMARK    5  A    between atoms: C5_5  and  C6_6
REMARK    6  A    between atoms: C10_11  and  C35_43
REMARK    7  A    between atoms: C11_13  and  C33_41
REMARK    8  A    between atoms: C11_13  and  C34_42
REMARK    9  A    between atoms: C13_16  and  C26_31
REMARK   10  A    between atoms: C15_19  and  C20_25
REMARK   11  A    between atoms: C17_22  and  C18_23
REMARK   12  A    between atoms: C17_22  and  C19_24
REMARK   13  A    between atoms: C20_25  and  C21_26
REMARK   14  A    between atoms: C21_26  and  C22_27
REMARK   15  A    between atoms: C23_28  and  C24_29
REMARK   16  A    between atoms: C23_28  and  C25_30
REMARK   17  A    between atoms: C26_31  and  C27_33
REMARK   18  A    between atoms: C31_37  and  O5_39
REMARK   19  A    between atoms: C35_43  and  C36_44
REMARK   20  A    between atoms: C36_44  and  C37_45
REMARK   21  A    between atoms: C38_46  and  C39_47
REMARK   22  A    between atoms: C38_46  and  C40_48
REMARK                            x       y       z     vdW  Elec       q    Type
REMARK                         _______ _______ _______ _____ _____    ______ ____
ROOT
ATOM      7  C   UNL     1      46.487  15.815  19.695  0.00  0.00    -0.012 C 
ATOM      8  C   UNL     1      47.635  16.796  19.935  0.00  0.00    +0.079 C 
ATOM      9  C   UNL     1      48.970  16.064  19.738  0.00  0.00    -0.096 C 
ATOM     10  C   UNL     1      50.132  16.989  20.027  0.00  0.00    +0.060 C 
ATOM     11  C   UNL     1      50.581  17.789  18.817  0.00  0.00    -0.014 C 
ATOM     18  C   UNL     1      50.747  16.889  17.594  0.00  0.00    +0.115 C 
ATOM     19  C   UNL     1      51.832  15.845  17.870  0.00  0.00    +0.034 C 
ATOM     20  C   UNL     1      51.143  17.736  16.384  0.00  0.00    +0.081 C 
ATOM     21  O   UNL     1      49.503  16.230  17.333  0.00  0.00    -0.279 OA
ATOM     22  C   UNL     1      48.992  14.900  20.718  0.00  0.00    +0.387 C 
ATOM     23  O   UNL     1      49.843  14.779  21.566  0.00  0.00    -0.413 OA
ATOM     24  C   UNL     1      47.857  13.899  20.547  0.00  0.00    -0.132 C 
ATOM     31  C   UNL     1      47.942  13.391  19.124  0.00  0.00    +0.426 C 
ATOM     32  O   UNL     1      47.523  12.286  18.847  0.00  0.00    -0.415 OA
ATOM     33  C   UNL     1      48.526  14.232  18.085  0.00  0.00    -0.290 C 
ATOM     45  C   UNL     1      49.009  15.495  18.346  0.00  0.00    +0.203 C 
ATOM     46  C   UNL     1      46.544  14.675  20.713  0.00  0.00    -0.032 C 
ATOM     47  C   UNL     1      45.364  13.728  20.484  0.00  0.00    +0.046 C 
ATOM     48  C   UNL     1      46.465  15.253  22.128  0.00  0.00    +0.042 C 
ENDROOT
BRANCH  33  34
ATOM     34  C   UNL     1      48.602  13.713  16.710  0.00  0.00    +0.471 C 
ATOM     44  O   UNL     1      47.672  13.881  15.944  0.00  0.00    -0.483 OA
BRANCH  34  35
ATOM     35  C   UNL     1      49.807  12.988  16.260  0.00  0.00    -0.290 A 
ATOM     36  C   UNL     1      50.141  11.760  16.838  0.00  0.00    +0.075 A 
ATOM     37  C   UNL     1      51.266  11.084  16.417  0.00  0.00    -0.166 A 
ATOM     38  C   UNL     1      52.070  11.620  15.420  0.00  0.00    +0.283 A 
ATOM     39  O   UNL     1      53.177  10.951  15.009  0.00  0.00    -0.696 OA
ATOM     40  C   UNL     1      51.742  12.846  14.840  0.00  0.00    -0.067 A 
ATOM     43  C   UNL     1      50.612  13.525  15.253  0.00  0.00    +0.080 A 
BRANCH  40  41
ATOM     41  O   UNL     1      52.532  13.369  13.865  0.00  0.00    -0.489 OA
ATOM     42  H   UNL     1      53.103  14.089  14.164  0.00  0.00    +0.356 HD
ENDBRANCH  40  41
ENDBRANCH  34  35
ENDBRANCH  33  34
BRANCH   7   6
ATOM      6  C   UNL     1      45.153  16.551  19.834  0.00  0.00    +0.036 C 
BRANCH   6   5
ATOM      5  C   UNL     1      45.411  17.991  20.280  0.00  0.00    +0.046 C 
BRANCH   5   4
ATOM      1  C   UNL     1      45.164  19.988  18.304  0.00  0.00    +0.072 C 
ATOM      2  C   UNL     1      44.002  19.673  19.209  0.00  0.00    -0.134 C 
ATOM      3  C   UNL     1      42.684  20.378  19.014  0.00  0.00    +0.068 C 
ATOM      4  C   UNL     1      44.137  18.788  20.164  0.00  0.00    -0.059 C 
ENDBRANCH   5   4
ENDBRANCH   6   5
ENDBRANCH   7   6
BRANCH  11  12
ATOM     12  C   UNL     1      49.535  18.862  18.510  0.00  0.00    +0.029 C 
BRANCH  12  13
ATOM     13  C   UNL     1      49.773  20.078  19.408  0.00  0.00    +0.047 C 
BRANCH  13  14
ATOM     14  C   UNL     1      48.454  20.736  19.722  0.00  0.00    -0.054 C 
ATOM     15  C   UNL     1      47.966  20.679  20.936  0.00  0.00    -0.137 C 
ATOM     16  C   UNL     1      46.720  21.451  21.284  0.00  0.00    +0.069 C 
ATOM     17  C   UNL     1      48.652  19.840  21.984  0.00  0.00    +0.070 C 
ENDBRANCH  13  14
ENDBRANCH  12  13
ENDBRANCH  11  12
BRANCH  24  25
ATOM     25  C   UNL     1      47.973  12.752  21.551  0.00  0.00    +0.079 C 
BRANCH  25  26
ATOM     26  C   UNL     1      48.848  11.644  20.960  0.00  0.00    +0.047 C 
BRANCH  26  27
ATOM     27  C   UNL     1      49.994  11.357  21.895  0.00  0.00    -0.045 C 
ATOM     28  C   UNL     1      51.223  11.624  21.528  0.00  0.00    -0.139 C 
ATOM     29  C   UNL     1      52.357  11.453  22.505  0.00  0.00    +0.069 C 
ATOM     30  C   UNL     1      51.502  12.103  20.126  0.00  0.00    +0.072 C 
ENDBRANCH  26  27
ENDBRANCH  25  26
ENDBRANCH  24  25
TORSDOF 12
ENDMDL
MODEL 3
REMARK VINA RESULT:      -6.0      2.227      4.314
REMARK  Name = ZINC95485968
REMARK  22 active torsions:
REMARK  status: ('A' for Active; 'I' for Inactive)
REMARK    1  A    between atoms: C1_1  and  C2_2
REMARK    2  A    between atoms: C2_2  and  C41_49
REMARK    3  A    between atoms: C3_3  and  C4_4
REMARK    4  A    between atoms: C4_4  and  C5_5
REMARK    5  A    between atoms: C5_5  and  C6_6
REMARK    6  A    between atoms: C10_11  and  C35_43
REMARK    7  A    between atoms: C11_13  and  C33_41
REMARK    8  A    between atoms: C11_13  and  C34_42
REMARK    9  A    between atoms: C13_16  and  C26_31
REMARK   10  A    between atoms: C15_19  and  C20_25
REMARK   11  A    between atoms: C17_22  and  C18_23
REMARK   12  A    between atoms: C17_22  and  C19_24
REMARK   13  A    between atoms: C20_25  and  C21_26
REMARK   14  A    between atoms: C21_26  and  C22_27
REMARK   15  A    between atoms: C23_28  and  C24_29
REMARK   16  A    between atoms: C23_28  and  C25_30
REMARK   17  A    between atoms: C26_31  and  C27_33
REMARK   18  A    between atoms: C31_37  and  O5_39
REMARK   19  A    between atoms: C35_43  and  C36_44
REMARK   20  A    between atoms: C36_44  and  C37_45
REMARK   21  A    between atoms: C38_46  and  C39_47
REMARK   22  A    between atoms: C38_46  and  C40_48
REMARK                            x       y       z     vdW  Elec       q    Type
REMARK                         _______ _______ _______ _____ _____    ______ ____
ROOT
ATOM      7  C   UNL     1      50.610  16.039  17.975  0.00  0.00    -0.012 C 
ATOM      8  C   UNL     1      50.952  15.575  19.391  0.00  0.00    +0.079 C 
ATOM      9  C   UNL     1      49.859  16.061  20.355  0.00  0.00    -0.096 C 
ATOM     10  C   UNL     1      50.195  15.672  21.778  0.00  0.00    +0.060 C 
ATOM     11  C   UNL     1      49.689  14.292  22.162  0.00  0.00    -0.014 C 
ATOM     18  C   UNL     1      48.227  14.113  21.760  0.00  0.00    +0.115 C 
ATOM     19  C   UNL     1      47.361  15.131  22.505  0.00  0.00    +0.034 C 
ATOM     20  C   UNL     1      47.770  12.695  22.109  0.00  0.00    +0.081 C 
ATOM     21  O   UNL     1      48.106  14.322  20.349  0.00  0.00    -0.279 OA
ATOM     22  C   UNL     1      49.805  17.577  20.243  0.00  0.00    +0.387 C 
ATOM     23  O   UNL     1      49.993  18.307  21.186  0.00  0.00    -0.413 OA
ATOM     24  C   UNL     1      49.493  18.103  18.848  0.00  0.00    -0.132 C 
ATOM     31  C   UNL     1      48.166  17.496  18.445  0.00  0.00    +0.426 C 
ATOM     32  O   UNL     1      47.448  18.075  17.656  0.00  0.00    -0.415 OA
ATOM     33  C   UNL     1      47.753  16.215  19.005  0.00  0.00    -0.290 C 
ATOM     45  C   UNL     1      48.534  15.515  19.899  0.00  0.00    +0.203 C 
ATOM     46  C   UNL     1      50.583  17.566  17.911  0.00  0.00    -0.032 C 
ATOM     47  C   UNL     1      50.282  18.010  16.478  0.00  0.00    +0.046 C 
ATOM     48  C   UNL     1      51.945  18.117  18.338  0.00  0.00    +0.042 C 
ENDROOT
BRANCH  33  34
ATOM     34  C   UNL     1      46.456  15.649  18.602  0.00  0.00    +0.471 C 
ATOM     44  O   UNL     1      45.422  16.170  18.976  0.00  0.00    -0.483 OA
BRANCH  34  35
ATOM     35  C   UNL     1      46.408  14.448  17.744  0.00  0.00    -0.290 A 
ATOM     36  C   UNL     1      45.721  13.309  18.172  0.00  0.00    +0.075 A 
ATOM     37  C   UNL     1      45.678  12.189  17.369  0.00  0.00    -0.166 A 
ATOM     38  C   UNL     1      46.316  12.189  16.137  0.00  0.00    +0.283 A 
ATOM     39  O   UNL     1      46.271  11.083  15.350  0.00  0.00    -0.696 OA
ATOM     40  C   UNL     1      47.004  13.322  15.704  0.00  0.00    -0.067 A 
ATOM     43  C   UNL     1      47.046  14.450  16.501  0.00  0.00    +0.080 A 
BRANCH  40  41
ATOM     41  O   UNL     1      47.629  13.319  14.497  0.00  0.00    -0.489 OA
ATOM     42  H   UNL     1      47.484  12.513  13.981  0.00  0.00    +0.356 HD
ENDBRANCH  40  41
ENDBRANCH  34  35
ENDBRANCH  33  34
BRANCH   7   6
ATOM      6  C   UNL     1      51.663  15.510  17.000  0.00  0.00    +0.036 C 
BRANCH   6   5
ATOM      5  C   UNL     1      51.138  14.244  16.320  0.00  0.00    +0.046 C 
BRANCH   5   4
ATOM      1  C   UNL     1      49.776  12.378  17.939  0.00  0.00    +0.072 C 
ATOM      2  C   UNL     1      51.218  12.147  17.568  0.00  0.00    -0.134 C 
ATOM      3  C   UNL     1      51.914  10.884  18.005  0.00  0.00    +0.068 C 
ATOM      4  C   UNL     1      51.866  13.042  16.866  0.00  0.00    -0.059 C 
ENDBRANCH   5   4
ENDBRANCH   6   5
ENDBRANCH   7   6
BRANCH  11  12
ATOM     12  C   UNL     1      50.536  13.233  21.455  0.00  0.00    +0.029 C 
BRANCH  12  13
ATOM     13  C   UNL     1      51.977  13.308  21.965  0.00  0.00    +0.047 C 
BRANCH  13  14
ATOM     14  C   UNL     1      52.910  12.753  20.920  0.00  0.00    -0.054 C 
ATOM     15  C   UNL     1      53.887  13.491  20.455  0.00  0.00    -0.137 C 
ATOM     16  C   UNL     1      54.901  12.893  19.515  0.00  0.00    +0.069 C 
ATOM     17  C   UNL     1      53.997  14.938  20.862  0.00  0.00    +0.070 C 
ENDBRANCH  13  14
ENDBRANCH  12  13
ENDBRANCH  11  12
BRANCH  24  25
ATOM     25  C   UNL     1      49.429  19.631  18.833  0.00  0.00    +0.079 C 
BRANCH  25  26
ATOM     26  C   UNL     1      48.010  20.085  19.183  0.00  0.00    +0.047 C 
BRANCH  26  27
ATOM     27  C   UNL     1      48.064  21.057  20.333  0.00  0.00    -0.045 C 
ATOM     28  C   UNL     1      46.973  21.664  20.730  0.00  0.00    -0.139 C 
ATOM     29  C   UNL     1      46.999  22.541  21.955  0.00  0.00    +0.069 C 
ATOM     30  C   UNL     1      45.689  21.484  19.960  0.00  0.00    +0.072 C 
ENDBRANCH  26  27
ENDBRANCH  25  26
ENDBRANCH  24  25
TORSDOF 12
ENDMDL
MODEL 4
REMARK VINA RESULT:      -6.0      2.661      8.003
REMARK  Name = ZINC95485968
REMARK  22 active torsions:
REMARK  status: ('A' for Active; 'I' for Inactive)
REMARK    1  A    between atoms: C1_1  and  C2_2
REMARK    2  A    between atoms: C2_2  and  C41_49
REMARK    3  A    between atoms: C3_3  and  C4_4
REMARK    4  A    between atoms: C4_4  and  C5_5
REMARK    5  A    between atoms: C5_5  and  C6_6
REMARK    6  A    between atoms: C10_11  and  C35_43
REMARK    7  A    between atoms: C11_13  and  C33_41
REMARK    8  A    between atoms: C11_13  and  C34_42
REMARK    9  A    between atoms: C13_16  and  C26_31
REMARK   10  A    between atoms: C15_19  and  C20_25
REMARK   11  A    between atoms: C17_22  and  C18_23
REMARK   12  A    between atoms: C17_22  and  C19_24
REMARK   13  A    between atoms: C20_25  and  C21_26
REMARK   14  A    between atoms: C21_26  and  C22_27
REMARK   15  A    between atoms: C23_28  and  C24_29
REMARK   16  A    between atoms: C23_28  and  C25_30
REMARK   17  A    between atoms: C26_31  and  C27_33
REMARK   18  A    between atoms: C31_37  and  O5_39
REMARK   19  A    between atoms: C35_43  and  C36_44
REMARK   20  A    between atoms: C36_44  and  C37_45
REMARK   21  A    between atoms: C38_46  and  C39_47
REMARK   22  A    between atoms: C38_46  and  C40_48
REMARK                            x       y       z     vdW  Elec       q    Type
REMARK                         _______ _______ _______ _____ _____    ______ ____
ROOT
ATOM      7  C   UNL     1      49.718  12.914  20.493  0.00  0.00    -0.012 C 
ATOM      8  C   UNL     1      49.773  14.426  20.719  0.00  0.00    +0.079 C 
ATOM      9  C   UNL     1      50.910  15.019  19.874  0.00  0.00    -0.096 C 
ATOM     10  C   UNL     1      51.034  16.507  20.119  0.00  0.00    +0.060 C 
ATOM     11  C   UNL     1      50.146  17.342  19.213  0.00  0.00    -0.014 C 
ATOM     18  C   UNL     1      50.280  16.904  17.757  0.00  0.00    +0.115 C 
ATOM     19  C   UNL     1      51.722  17.112  17.289  0.00  0.00    +0.034 C 
ATOM     20  C   UNL     1      49.331  17.727  16.884  0.00  0.00    +0.081 C 
ATOM     21  O   UNL     1      49.940  15.517  17.659  0.00  0.00    -0.279 OA
ATOM     22  C   UNL     1      52.194  14.325  20.302  0.00  0.00    +0.387 C 
ATOM     23  O   UNL     1      53.142  14.927  20.748  0.00  0.00    -0.413 OA
ATOM     24  C   UNL     1      52.193  12.812  20.125  0.00  0.00    -0.132 C 
ATOM     31  C   UNL     1      51.915  12.551  18.661  0.00  0.00    +0.426 C 
ATOM     32  O   UNL     1      52.324  11.534  18.137  0.00  0.00    -0.415 OA
ATOM     33  C   UNL     1      51.154  13.519  17.880  0.00  0.00    -0.290 C 
ATOM     45  C   UNL     1      50.664  14.684  18.428  0.00  0.00    +0.203 C 
ATOM     46  C   UNL     1      51.023  12.263  20.952  0.00  0.00    -0.032 C 
ATOM     47  C   UNL     1      50.933  10.748  20.757  0.00  0.00    +0.046 C 
ATOM     48  C   UNL     1      51.251  12.573  22.434  0.00  0.00    +0.042 C 
ENDROOT
BRANCH  33  34
ATOM     34  C   UNL     1      50.903  13.244  16.457  0.00  0.00    +0.471 C 
ATOM     44  O   UNL     1      51.734  13.548  15.622  0.00  0.00    -0.483 OA
BRANCH  34  35
ATOM     35  C   UNL     1      49.641  12.600  16.041  0.00  0.00    -0.290 A 
ATOM     36  C   UNL     1      49.054  11.624  16.851  0.00  0.00    +0.075 A 
ATOM     37  C   UNL     1      47.876  11.024  16.461  0.00  0.00    -0.166 A 
ATOM     38  C   UNL     1      47.272  11.384  15.264  0.00  0.00    +0.283 A 
ATOM     39  O   UNL     1      46.111  10.789  14.885  0.00  0.00    -0.696 OA
ATOM     40  C   UNL     1      47.853  12.357  14.451  0.00  0.00    -0.067 A 
ATOM     43  C   UNL     1      49.030  12.967  14.840  0.00  0.00    +0.080 A 
BRANCH  40  41
ATOM     41  O   UNL     1      47.259  12.707  13.280  0.00  0.00    -0.489 OA
ATOM     42  H   UNL     1      47.824  12.595  12.503  0.00  0.00    +0.356 HD
ENDBRANCH  40  41
ENDBRANCH  34  35
ENDBRANCH  33  34
BRANCH   7   6
ATOM      6  C   UNL     1      48.551  12.324  21.286  0.00  0.00    +0.036 C 
BRANCH   6   5
ATOM      5  C   UNL     1      47.256  13.038  20.894  0.00  0.00    +0.046 C 
BRANCH   5   4
ATOM      1  C   UNL     1      45.689  15.087  19.753  0.00  0.00    +0.072 C 
ATOM      2  C   UNL     1      46.531  14.200  18.873  0.00  0.00    -0.134 C 
ATOM      3  C   UNL     1      46.589  14.451  17.388  0.00  0.00    +0.068 C 
ATOM      4  C   UNL     1      47.212  13.212  19.398  0.00  0.00    -0.059 C 
ENDBRANCH   5   4
ENDBRANCH   6   5
ENDBRANCH   7   6
BRANCH  11  12
ATOM     12  C   UNL     1      48.690  17.183  19.652  0.00  0.00    +0.029 C 
BRANCH  12  13
ATOM     13  C   UNL     1      48.314  18.326  20.598  0.00  0.00    +0.047 C 
BRANCH  13  14
ATOM     14  C   UNL     1      47.165  19.105  20.011  0.00  0.00    -0.054 C 
ATOM     15  C   UNL     1      47.394  20.214  19.352  0.00  0.00    -0.137 C 
ATOM     16  C   UNL     1      46.263  20.919  18.649  0.00  0.00    +0.069 C 
ATOM     17  C   UNL     1      48.789  20.783  19.297  0.00  0.00    +0.070 C 
ENDBRANCH  13  14
ENDBRANCH  12  13
ENDBRANCH  11  12
BRANCH  24  25
ATOM     25  C   UNL     1      53.529  12.203  20.552  0.00  0.00    +0.079 C 
BRANCH  25  26
ATOM     26  C   UNL     1      54.641  12.722  19.638  0.00  0.00    +0.047 C 
BRANCH  26  27
ATOM     27  C   UNL     1      55.913  12.874  20.430  0.00  0.00    -0.045 C 
ATOM     28  C   UNL     1      56.621  13.971  20.330  0.00  0.00    -0.139 C 
ATOM     29  C   UNL     1      57.825  14.177  21.213  0.00  0.00    +0.069 C 
ATOM     30  C   UNL     1      56.230  15.031  19.331  0.00  0.00    +0.072 C 
ENDBRANCH  26  27
ENDBRANCH  25  26
ENDBRANCH  24  25
TORSDOF 12
ENDMDL
MODEL 5
REMARK VINA RESULT:      -5.9      2.642      4.424
REMARK  Name = ZINC95485968
REMARK  22 active torsions:
REMARK  status: ('A' for Active; 'I' for Inactive)
REMARK    1  A    between atoms: C1_1  and  C2_2
REMARK    2  A    between atoms: C2_2  and  C41_49
REMARK    3  A    between atoms: C3_3  and  C4_4
REMARK    4  A    between atoms: C4_4  and  C5_5
REMARK    5  A    between atoms: C5_5  and  C6_6
REMARK    6  A    between atoms: C10_11  and  C35_43
REMARK    7  A    between atoms: C11_13  and  C33_41
REMARK    8  A    between atoms: C11_13  and  C34_42
REMARK    9  A    between atoms: C13_16  and  C26_31
REMARK   10  A    between atoms: C15_19  and  C20_25
REMARK   11  A    between atoms: C17_22  and  C18_23
REMARK   12  A    between atoms: C17_22  and  C19_24
REMARK   13  A    between atoms: C20_25  and  C21_26
REMARK   14  A    between atoms: C21_26  and  C22_27
REMARK   15  A    between atoms: C23_28  and  C24_29
REMARK   16  A    between atoms: C23_28  and  C25_30
REMARK   17  A    between atoms: C26_31  and  C27_33
REMARK   18  A    between atoms: C31_37  and  O5_39
REMARK   19  A    between atoms: C35_43  and  C36_44
REMARK   20  A    between atoms: C36_44  and  C37_45
REMARK   21  A    between atoms: C38_46  and  C39_47
REMARK   22  A    between atoms: C38_46  and  C40_48
REMARK                            x       y       z     vdW  Elec       q    Type
REMARK                         _______ _______ _______ _____ _____    ______ ____
ROOT
ATOM      7  C   UNL     1      49.185  16.133  17.564  0.00  0.00    -0.012 C 
ATOM      8  C   UNL     1      50.109  15.854  18.751  0.00  0.00    +0.079 C 
ATOM      9  C   UNL     1      49.803  14.456  19.307  0.00  0.00    -0.096 C 
ATOM     10  C   UNL     1      50.657  14.169  20.522  0.00  0.00    +0.060 C 
ATOM     11  C   UNL     1      52.005  13.559  20.181  0.00  0.00    -0.014 C 
ATOM     18  C   UNL     1      51.850  12.399  19.200  0.00  0.00    +0.115 C 
ATOM     19  C   UNL     1      51.006  11.295  19.840  0.00  0.00    +0.034 C 
ATOM     20  C   UNL     1      53.230  11.848  18.835  0.00  0.00    +0.081 C 
ATOM     21  O   UNL     1      51.197  12.877  18.019  0.00  0.00    -0.279 OA
ATOM     22  C   UNL     1      48.335  14.443  19.704  0.00  0.00    +0.387 C 
ATOM     23  O   UNL     1      47.967  14.215  20.832  0.00  0.00    -0.413 OA
ATOM     24  C   UNL     1      47.363  14.739  18.569  0.00  0.00    -0.132 C 
ATOM     31  C   UNL     1      47.628  13.706  17.495  0.00  0.00    +0.426 C 
ATOM     32  O   UNL     1      46.740  13.380  16.734  0.00  0.00    -0.415 OA
ATOM     33  C   UNL     1      48.951  13.105  17.374  0.00  0.00    -0.290 C 
ATOM     45  C   UNL     1      49.993  13.446  18.209  0.00  0.00    +0.203 C 
ATOM     46  C   UNL     1      47.724  16.125  18.018  0.00  0.00    -0.032 C 
ATOM     47  C   UNL     1      46.820  16.447  16.826  0.00  0.00    +0.046 C 
ATOM     48  C   UNL     1      47.525  17.180  19.108  0.00  0.00    +0.042 C 
ENDROOT
BRANCH  33  34
ATOM     34  C   UNL     1      49.181  12.099  16.326  0.00  0.00    +0.471 C 
ATOM     44  O   UNL     1      49.099  10.915  16.591  0.00  0.00    -0.483 OA
BRANCH  34  35
ATOM     35  C   UNL     1      49.513  12.527  14.952  0.00  0.00    -0.290 A 
ATOM     36  C   UNL     1      48.523  12.543  13.966  0.00  0.00    +0.075 A 
ATOM     37  C   UNL     1      48.835  12.943  12.684  0.00  0.00    -0.166 A 
ATOM     38  C   UNL     1      50.131  13.328  12.369  0.00  0.00    +0.283 A 
ATOM     39  O   UNL     1      50.433  13.721  11.105  0.00  0.00    -0.696 OA
ATOM     40  C   UNL     1      51.124  13.314  13.349  0.00  0.00    -0.067 A 
ATOM     43  C   UNL     1      50.816  12.921  14.637  0.00  0.00    +0.080 A 
BRANCH  40  41
ATOM     41  O   UNL     1      52.392  13.692  13.037  0.00  0.00    -0.489 OA
ATOM     42  H   UNL     1      52.902  13.014  12.572  0.00  0.00    +0.356 HD
ENDBRANCH  40  41
ENDBRANCH  34  35
ENDBRANCH  33  34
BRANCH   7   6
ATOM      6  C   UNL     1      49.522  17.500  16.969  0.00  0.00    +0.036 C 
BRANCH   6   5
ATOM      5  C   UNL     1      50.881  17.964  17.496  0.00  0.00    +0.046 C 
BRANCH   5   4
ATOM      1  C   UNL     1      50.720  20.741  17.966  0.00  0.00    +0.072 C 
ATOM      2  C   UNL     1      51.471  20.219  16.768  0.00  0.00    -0.134 C 
ATOM      3  C   UNL     1      52.194  21.177  15.857  0.00  0.00    +0.068 C 
ATOM      4  C   UNL     1      51.495  18.933  16.519  0.00  0.00    -0.059 C 
ENDBRANCH   5   4
ENDBRANCH   6   5
ENDBRANCH   7   6
BRANCH  11  12
ATOM     12  C   UNL     1      52.896  14.631  19.553  0.00  0.00    +0.029 C 
BRANCH  12  13
ATOM     13  C   UNL     1      53.436  15.552  20.649  0.00  0.00    +0.047 C 
BRANCH  13  14
ATOM     14  C   UNL     1      53.128  16.985  20.298  0.00  0.00    -0.054 C 
ATOM     15  C   UNL     1      52.396  17.713  21.104  0.00  0.00    -0.137 C 
ATOM     16  C   UNL     1      52.203  19.181  20.825  0.00  0.00    +0.069 C 
ATOM     17  C   UNL     1      51.749  17.083  22.311  0.00  0.00    +0.070 C 
ENDBRANCH  13  14
ENDBRANCH  12  13
ENDBRANCH  11  12
BRANCH  24  25
ATOM     25  C   UNL     1      45.912  14.677  19.050  0.00  0.00    +0.079 C 
BRANCH  25  26
ATOM     26  C   UNL     1      45.461  16.072  19.489  0.00  0.00    +0.047 C 
BRANCH  26  27
ATOM     27  C   UNL     1      44.731  15.974  20.803  0.00  0.00    -0.045 C 
ATOM     28  C   UNL     1      44.050  16.998  21.253  0.00  0.00    -0.139 C 
ATOM     29  C   UNL     1      43.220  16.863  22.503  0.00  0.00    +0.069 C 
ATOM     30  C   UNL     1      44.097  18.315  20.519  0.00  0.00    +0.072 C 
ENDBRANCH  26  27
ENDBRANCH  25  26
ENDBRANCH  24  25
TORSDOF 12
ENDMDL
MODEL 6
REMARK VINA RESULT:      -5.9      2.129      3.470
REMARK  Name = ZINC95485968
REMARK  22 active torsions:
REMARK  status: ('A' for Active; 'I' for Inactive)
REMARK    1  A    between atoms: C1_1  and  C2_2
REMARK    2  A    between atoms: C2_2  and  C41_49
REMARK    3  A    between atoms: C3_3  and  C4_4
REMARK    4  A    between atoms: C4_4  and  C5_5
REMARK    5  A    between atoms: C5_5  and  C6_6
REMARK    6  A    between atoms: C10_11  and  C35_43
REMARK    7  A    between atoms: C11_13  and  C33_41
REMARK    8  A    between atoms: C11_13  and  C34_42
REMARK    9  A    between atoms: C13_16  and  C26_31
REMARK   10  A    between atoms: C15_19  and  C20_25
REMARK   11  A    between atoms: C17_22  and  C18_23
REMARK   12  A    between atoms: C17_22  and  C19_24
REMARK   13  A    between atoms: C20_25  and  C21_26
REMARK   14  A    between atoms: C21_26  and  C22_27
REMARK   15  A    between atoms: C23_28  and  C24_29
REMARK   16  A    between atoms: C23_28  and  C25_30
REMARK   17  A    between atoms: C26_31  and  C27_33
REMARK   18  A    between atoms: C31_37  and  O5_39
REMARK   19  A    between atoms: C35_43  and  C36_44
REMARK   20  A    between atoms: C36_44  and  C37_45
REMARK   21  A    between atoms: C38_46  and  C39_47
REMARK   22  A    between atoms: C38_46  and  C40_48
REMARK                            x       y       z     vdW  Elec       q    Type
REMARK                         _______ _______ _______ _____ _____    ______ ____
ROOT
ATOM      7  C   UNL     1      48.560  16.617  18.401  0.00  0.00    -0.012 C 
ATOM      8  C   UNL     1      49.452  16.481  19.636  0.00  0.00    +0.079 C 
ATOM      9  C   UNL     1      49.004  15.256  20.445  0.00  0.00    -0.096 C 
ATOM     10  C   UNL     1      49.827  15.124  21.708  0.00  0.00    +0.060 C 
ATOM     11  C   UNL     1      51.103  14.325  21.515  0.00  0.00    -0.014 C 
ATOM     18  C   UNL     1      50.827  13.019  20.773  0.00  0.00    +0.115 C 
ATOM     19  C   UNL     1      49.875  12.152  21.599  0.00  0.00    +0.034 C 
ATOM     20  C   UNL     1      52.141  12.270  20.547  0.00  0.00    +0.081 C 
ATOM     21  O   UNL     1      50.225  13.324  19.511  0.00  0.00    -0.279 OA
ATOM     22  C   UNL     1      47.544  15.470  20.811  0.00  0.00    +0.387 C 
ATOM     23  O   UNL     1      47.157  15.504  21.955  0.00  0.00    -0.413 OA
ATOM     24  C   UNL     1      46.605  15.639  19.623  0.00  0.00    -0.132 C 
ATOM     31  C   UNL     1      46.759  14.396  18.773  0.00  0.00    +0.426 C 
ATOM     32  O   UNL     1      45.841  14.021  18.074  0.00  0.00    -0.415 OA
ATOM     33  C   UNL     1      48.013  13.651  18.794  0.00  0.00    -0.290 C 
ATOM     45  C   UNL     1      49.087  14.038  19.566  0.00  0.00    +0.203 C 
ATOM     46  C   UNL     1      47.107  16.847  18.821  0.00  0.00    -0.032 C 
ATOM     47  C   UNL     1      46.238  17.023  17.574  0.00  0.00    +0.046 C 
ATOM     48  C   UNL     1      47.021  18.108  19.684  0.00  0.00    +0.042 C 
ENDROOT
BRANCH  33  34
ATOM     34  C   UNL     1      48.135  12.443  17.964  0.00  0.00    +0.471 C 
ATOM     44  O   UNL     1      47.802  11.361  18.410  0.00  0.00    -0.483 OA
BRANCH  34  35
ATOM     35  C   UNL     1      48.663  12.542  16.588  0.00  0.00    -0.290 A 
ATOM     36  C   UNL     1      50.039  12.457  16.359  0.00  0.00    +0.075 A 
ATOM     37  C   UNL     1      50.529  12.550  15.075  0.00  0.00    -0.166 A 
ATOM     38  C   UNL     1      49.660  12.729  14.007  0.00  0.00    +0.283 A 
ATOM     39  O   UNL     1      50.149  12.821  12.743  0.00  0.00    -0.696 OA
ATOM     40  C   UNL     1      48.286  12.816  14.229  0.00  0.00    -0.067 A 
ATOM     43  C   UNL     1      47.788  12.717  15.514  0.00  0.00    +0.080 A 
BRANCH  40  41
ATOM     41  O   UNL     1      47.438  12.992  13.182  0.00  0.00    -0.489 OA
ATOM     42  H   UNL     1      47.875  13.004  12.319  0.00  0.00    +0.356 HD
ENDBRANCH  40  41
ENDBRANCH  34  35
ENDBRANCH  33  34
BRANCH   7   6
ATOM      6  C   UNL     1      49.036  17.802  17.559  0.00  0.00    +0.036 C 
BRANCH   6   5
ATOM      5  C   UNL     1      50.487  18.129  17.915  0.00  0.00    +0.046 C 
BRANCH   5   4
ATOM      1  C   UNL     1      52.058  18.842  15.683  0.00  0.00    +0.072 C 
ATOM      2  C   UNL     1      51.442  19.912  16.547  0.00  0.00    -0.134 C 
ATOM      3  C   UNL     1      51.609  21.364  16.179  0.00  0.00    +0.068 C 
ATOM      4  C   UNL     1      50.763  19.580  17.616  0.00  0.00    -0.059 C 
ENDBRANCH   5   4
ENDBRANCH   6   5
ENDBRANCH   7   6
BRANCH  11  12
ATOM     12  C   UNL     1      52.100  15.158  20.708  0.00  0.00    +0.029 C 
BRANCH  12  13
ATOM     13  C   UNL     1      52.729  16.219  21.614  0.00  0.00    +0.047 C 
BRANCH  13  14
ATOM     14  C   UNL     1      52.775  17.538  20.886  0.00  0.00    -0.054 C 
ATOM     15  C   UNL     1      52.092  18.560  21.339  0.00  0.00    -0.137 C 
ATOM     16  C   UNL     1      52.244  19.913  20.694  0.00  0.00    +0.069 C 
ATOM     17  C   UNL     1      51.154  18.381  22.505  0.00  0.00    +0.070 C 
ENDBRANCH  13  14
ENDBRANCH  12  13
ENDBRANCH  11  12
BRANCH  24  25
ATOM     25  C   UNL     1      45.157  15.820  20.081  0.00  0.00    +0.079 C 
BRANCH  25  26
ATOM     26  C   UNL     1      45.065  17.031  21.012  0.00  0.00    +0.047 C 
BRANCH  26  27
ATOM     27  C   UNL     1      43.621  17.289  21.358  0.00  0.00    -0.045 C 
ATOM     28  C   UNL     1      43.113  18.486  21.196  0.00  0.00    -0.139 C 
ATOM     29  C   UNL     1      41.641  18.718  21.423  0.00  0.00    +0.069 C 
ATOM     30  C   UNL     1      44.001  19.632  20.782  0.00  0.00    +0.072 C 
ENDBRANCH  26  27
ENDBRANCH  25  26
ENDBRANCH  24  25
TORSDOF 12
ENDMDL
MODEL 7
REMARK VINA RESULT:      -5.8      3.042      5.598
REMARK  Name = ZINC95485968
REMARK  22 active torsions:
REMARK  status: ('A' for Active; 'I' for Inactive)
REMARK    1  A    between atoms: C1_1  and  C2_2
REMARK    2  A    between atoms: C2_2  and  C41_49
REMARK    3  A    between atoms: C3_3  and  C4_4
REMARK    4  A    between atoms: C4_4  and  C5_5
REMARK    5  A    between atoms: C5_5  and  C6_6
REMARK    6  A    between atoms: C10_11  and  C35_43
REMARK    7  A    between atoms: C11_13  and  C33_41
REMARK    8  A    between atoms: C11_13  and  C34_42
REMARK    9  A    between atoms: C13_16  and  C26_31
REMARK   10  A    between atoms: C15_19  and  C20_25
REMARK   11  A    between atoms: C17_22  and  C18_23
REMARK   12  A    between atoms: C17_22  and  C19_24
REMARK   13  A    between atoms: C20_25  and  C21_26
REMARK   14  A    between atoms: C21_26  and  C22_27
REMARK   15  A    between atoms: C23_28  and  C24_29
REMARK   16  A    between atoms: C23_28  and  C25_30
REMARK   17  A    between atoms: C26_31  and  C27_33
REMARK   18  A    between atoms: C31_37  and  O5_39
REMARK   19  A    between atoms: C35_43  and  C36_44
REMARK   20  A    between atoms: C36_44  and  C37_45
REMARK   21  A    between atoms: C38_46  and  C39_47
REMARK   22  A    between atoms: C38_46  and  C40_48
REMARK                            x       y       z     vdW  Elec       q    Type
REMARK                         _______ _______ _______ _____ _____    ______ ____
ROOT
ATOM      7  C   UNL     1      48.691  15.558  17.531  0.00  0.00    -0.012 C 
ATOM      8  C   UNL     1      49.310  15.355  18.915  0.00  0.00    +0.079 C 
ATOM      9  C   UNL     1      49.140  13.887  19.329  0.00  0.00    -0.096 C 
ATOM     10  C   UNL     1      49.688  13.660  20.721  0.00  0.00    +0.060 C 
ATOM     11  C   UNL     1      51.168  13.323  20.740  0.00  0.00    -0.014 C 
ATOM     18  C   UNL     1      51.495  12.233  19.721  0.00  0.00    +0.115 C 
ATOM     19  C   UNL     1      50.739  10.952  20.079  0.00  0.00    +0.034 C 
ATOM     20  C   UNL     1      53.001  11.961  19.727  0.00  0.00    +0.081 C 
ATOM     21  O   UNL     1      51.094  12.679  18.421  0.00  0.00    -0.279 OA
ATOM     22  C   UNL     1      47.649  13.587  19.315  0.00  0.00    +0.387 C 
ATOM     23  O   UNL     1      47.051  13.212  20.295  0.00  0.00    -0.413 OA
ATOM     24  C   UNL     1      46.968  13.795  17.969  0.00  0.00    -0.132 C 
ATOM     31  C   UNL     1      47.693  12.910  16.978  0.00  0.00    +0.426 C 
ATOM     32  O   UNL     1      47.112  12.493  15.997  0.00  0.00    -0.415 OA
ATOM     33  C   UNL     1      49.091  12.560  17.202  0.00  0.00    -0.290 C 
ATOM     45  C   UNL     1      49.797  13.013  18.295  0.00  0.00    +0.203 C 
ATOM     46  C   UNL     1      47.192  15.260  17.573  0.00  0.00    -0.032 C 
ATOM     47  C   UNL     1      46.584  15.510  16.191  0.00  0.00    +0.046 C 
ATOM     48  C   UNL     1      46.520  16.177  18.598  0.00  0.00    +0.042 C 
ENDROOT
BRANCH  33  34
ATOM     34  C   UNL     1      49.772  11.694  16.227  0.00  0.00    +0.471 C 
ATOM     44  O   UNL     1      49.876  10.501  16.442  0.00  0.00    -0.483 OA
BRANCH  34  35
ATOM     35  C   UNL     1      50.329  12.271  14.988  0.00  0.00    -0.290 A 
ATOM     36  C   UNL     1      51.660  12.698  14.952  0.00  0.00    +0.075 A 
ATOM     37  C   UNL     1      52.179  13.237  13.795  0.00  0.00    -0.166 A 
ATOM     38  C   UNL     1      51.383  13.359  12.664  0.00  0.00    +0.283 A 
ATOM     39  O   UNL     1      51.899  13.891  11.526  0.00  0.00    -0.696 OA
ATOM     40  C   UNL     1      50.054  12.935  12.693  0.00  0.00    -0.067 A 
ATOM     43  C   UNL     1      49.530  12.388  13.848  0.00  0.00    +0.080 A 
BRANCH  40  41
ATOM     41  O   UNL     1      49.278  13.056  11.584  0.00  0.00    -0.489 OA
ATOM     42  H   UNL     1      49.649  12.636  10.796  0.00  0.00    +0.356 HD
ENDBRANCH  40  41
ENDBRANCH  34  35
ENDBRANCH  33  34
BRANCH   7   6
ATOM      6  C   UNL     1      48.907  17.005  17.086  0.00  0.00    +0.036 C 
BRANCH   6   5
ATOM      5  C   UNL     1      50.351  17.418  17.378  0.00  0.00    +0.046 C 
BRANCH   5   4
ATOM      1  C   UNL     1      52.042  19.308  16.143  0.00  0.00    +0.072 C 
ATOM      2  C   UNL     1      51.118  19.733  17.255  0.00  0.00    -0.134 C 
ATOM      3  C   UNL     1      51.048  21.182  17.661  0.00  0.00    +0.068 C 
ATOM      4  C   UNL     1      50.377  18.843  17.867  0.00  0.00    -0.059 C 
ENDBRANCH   5   4
ENDBRANCH   6   5
ENDBRANCH   7   6
BRANCH  11  12
ATOM     12  C   UNL     1      51.973  14.580  20.404  0.00  0.00    +0.029 C 
BRANCH  12  13
ATOM     13  C   UNL     1      51.864  15.578  21.559  0.00  0.00    +0.047 C 
BRANCH  13  14
ATOM     14  C   UNL     1      52.376  16.922  21.110  0.00  0.00    -0.054 C 
ATOM     15  C   UNL     1      51.607  17.979  21.196  0.00  0.00    -0.137 C 
ATOM     16  C   UNL     1      52.161  19.343  20.879  0.00  0.00    +0.069 C 
ATOM     17  C   UNL     1      50.166  17.828  21.614  0.00  0.00    +0.070 C 
ENDBRANCH  13  14
ENDBRANCH  12  13
ENDBRANCH  11  12
BRANCH  24  25
ATOM     25  C   UNL     1      45.481  13.444  18.039  0.00  0.00    +0.079 C 
BRANCH  25  26
ATOM     26  C   UNL     1      45.231  12.132  17.290  0.00  0.00    +0.047 C 
BRANCH  26  27
ATOM     27  C   UNL     1      43.786  12.060  16.872  0.00  0.00    -0.045 C 
ATOM     28  C   UNL     1      43.399  11.160  16.003  0.00  0.00    -0.139 C 
ATOM     29  C   UNL     1      41.936  11.005  15.676  0.00  0.00    +0.069 C 
ATOM     30  C   UNL     1      44.419  10.277  15.329  0.00  0.00    +0.072 C 
ENDBRANCH  26  27
ENDBRANCH  25  26
ENDBRANCH  24  25
TORSDOF 12
ENDMDL
MODEL 8
REMARK VINA RESULT:      -5.6      1.803      7.109
REMARK  Name = ZINC95485968
REMARK  22 active torsions:
REMARK  status: ('A' for Active; 'I' for Inactive)
REMARK    1  A    between atoms: C1_1  and  C2_2
REMARK    2  A    between atoms: C2_2  and  C41_49
REMARK    3  A    between atoms: C3_3  and  C4_4
REMARK    4  A    between atoms: C4_4  and  C5_5
REMARK    5  A    between atoms: C5_5  and  C6_6
REMARK    6  A    between atoms: C10_11  and  C35_43
REMARK    7  A    between atoms: C11_13  and  C33_41
REMARK    8  A    between atoms: C11_13  and  C34_42
REMARK    9  A    between atoms: C13_16  and  C26_31
REMARK   10  A    between atoms: C15_19  and  C20_25
REMARK   11  A    between atoms: C17_22  and  C18_23
REMARK   12  A    between atoms: C17_22  and  C19_24
REMARK   13  A    between atoms: C20_25  and  C21_26
REMARK   14  A    between atoms: C21_26  and  C22_27
REMARK   15  A    between atoms: C23_28  and  C24_29
REMARK   16  A    between atoms: C23_28  and  C25_30
REMARK   17  A    between atoms: C26_31  and  C27_33
REMARK   18  A    between atoms: C31_37  and  O5_39
REMARK   19  A    between atoms: C35_43  and  C36_44
REMARK   20  A    between atoms: C36_44  and  C37_45
REMARK   21  A    between atoms: C38_46  and  C39_47
REMARK   22  A    between atoms: C38_46  and  C40_48
REMARK                            x       y       z     vdW  Elec       q    Type
REMARK                         _______ _______ _______ _____ _____    ______ ____
ROOT
ATOM      7  C   UNL     1      46.901  18.197  20.589  0.00  0.00    -0.012 C 
ATOM      8  C   UNL     1      46.656  17.223  19.435  0.00  0.00    +0.079 C 
ATOM      9  C   UNL     1      47.977  16.989  18.688  0.00  0.00    -0.096 C 
ATOM     10  C   UNL     1      47.762  16.076  17.501  0.00  0.00    +0.060 C 
ATOM     11  C   UNL     1      47.886  14.602  17.844  0.00  0.00    -0.014 C 
ATOM     18  C   UNL     1      49.149  14.332  18.659  0.00  0.00    +0.115 C 
ATOM     19  C   UNL     1      50.382  14.705  17.833  0.00  0.00    +0.034 C 
ATOM     20  C   UNL     1      49.209  12.850  19.034  0.00  0.00    +0.081 C 
ATOM     21  O   UNL     1      49.110  15.127  19.849  0.00  0.00    -0.279 OA
ATOM     22  C   UNL     1      48.464  18.346  18.203  0.00  0.00    +0.387 C 
ATOM     23  O   UNL     1      48.648  18.593  17.035  0.00  0.00    -0.413 OA
ATOM     24  C   UNL     1      48.702  19.371  19.305  0.00  0.00    -0.132 C 
ATOM     31  C   UNL     1      49.710  18.757  20.253  0.00  0.00    +0.426 C 
ATOM     32  O   UNL     1      50.438  19.472  20.910  0.00  0.00    -0.415 OA
ATOM     33  C   UNL     1      49.802  17.307  20.378  0.00  0.00    -0.290 C 
ATOM     45  C   UNL     1      48.994  16.453  19.659  0.00  0.00    +0.203 C 
ATOM     46  C   UNL     1      47.372  19.548  20.049  0.00  0.00    -0.032 C 
ATOM     47  C   UNL     1      47.570  20.520  21.214  0.00  0.00    +0.046 C 
ATOM     48  C   UNL     1      46.318  20.108  19.092  0.00  0.00    +0.042 C 
ENDROOT
BRANCH  33  34
ATOM     34  C   UNL     1      50.794  16.736  21.302  0.00  0.00    +0.471 C 
ATOM     44  O   UNL     1      50.597  16.768  22.502  0.00  0.00    -0.483 OA
BRANCH  34  35
ATOM     35  C   UNL     1      52.029  16.123  20.773  0.00  0.00    -0.290 A 
ATOM     36  C   UNL     1      52.917  16.885  20.009  0.00  0.00    +0.075 A 
ATOM     37  C   UNL     1      54.069  16.312  19.517  0.00  0.00    -0.166 A 
ATOM     38  C   UNL     1      54.351  14.977  19.777  0.00  0.00    +0.283 A 
ATOM     39  O   UNL     1      55.488  14.417  19.289  0.00  0.00    -0.696 OA
ATOM     40  C   UNL     1      53.468  14.211  20.538  0.00  0.00    -0.067 A 
ATOM     43  C   UNL     1      52.315  14.782  21.040  0.00  0.00    +0.080 A 
BRANCH  40  41
ATOM     41  O   UNL     1      53.747  12.904  20.790  0.00  0.00    -0.489 OA
ATOM     42  H   UNL     1      53.153  12.282  20.347  0.00  0.00    +0.356 HD
ENDBRANCH  40  41
ENDBRANCH  34  35
ENDBRANCH  33  34
BRANCH   7   6
ATOM      6  C   UNL     1      45.602  18.390  21.373  0.00  0.00    +0.036 C 
BRANCH   6   5
ATOM      5  C   UNL     1      44.431  17.827  20.566  0.00  0.00    +0.046 C 
BRANCH   5   4
ATOM      1  C   UNL     1      42.605  19.655  19.435  0.00  0.00    +0.072 C 
ATOM      2  C   UNL     1      42.265  18.943  20.718  0.00  0.00    -0.134 C 
ATOM      3  C   UNL     1      40.920  19.156  21.363  0.00  0.00    +0.068 C 
ATOM      4  C   UNL     1      43.137  18.139  21.273  0.00  0.00    -0.059 C 
ENDBRANCH   5   4
ENDBRANCH   6   5
ENDBRANCH   7   6
BRANCH  11  12
ATOM     12  C   UNL     1      46.664  14.172  18.657  0.00  0.00    +0.029 C 
BRANCH  12  13
ATOM     13  C   UNL     1      45.918  13.064  17.911  0.00  0.00    +0.047 C 
BRANCH  13  14
ATOM     14  C   UNL     1      46.515  12.894  16.538  0.00  0.00    -0.054 C 
ATOM     15  C   UNL     1      46.911  11.711  16.138  0.00  0.00    -0.137 C 
ATOM     16  C   UNL     1      47.378  11.512  14.719  0.00  0.00    +0.069 C 
ATOM     17  C   UNL     1      46.897  10.548  17.097  0.00  0.00    +0.070 C 
ENDBRANCH  13  14
ENDBRANCH  12  13
ENDBRANCH  11  12
BRANCH  24  25
ATOM     25  C   UNL     1      49.216  20.692  18.732  0.00  0.00    +0.079 C 
BRANCH  25  26
ATOM     26  C   UNL     1      50.746  20.698  18.757  0.00  0.00    +0.047 C 
BRANCH  26  27
ATOM     27  C   UNL     1      51.270  20.974  17.371  0.00  0.00    -0.045 C 
ATOM     28  C   UNL     1      51.820  20.011  16.675  0.00  0.00    -0.139 C 
ATOM     29  C   UNL     1      52.233  20.253  15.246  0.00  0.00    +0.069 C 
ATOM     30  C   UNL     1      52.041  18.658  17.304  0.00  0.00    +0.072 C 
ENDBRANCH  26  27
ENDBRANCH  25  26
ENDBRANCH  24  25
TORSDOF 12
ENDMDL
MODEL 9
REMARK VINA RESULT:      -5.5      2.543      3.942
REMARK  Name = ZINC95485968
REMARK  22 active torsions:
REMARK  status: ('A' for Active; 'I' for Inactive)
REMARK    1  A    between atoms: C1_1  and  C2_2
REMARK    2  A    between atoms: C2_2  and  C41_49
REMARK    3  A    between atoms: C3_3  and  C4_4
REMARK    4  A    between atoms: C4_4  and  C5_5
REMARK    5  A    between atoms: C5_5  and  C6_6
REMARK    6  A    between atoms: C10_11  and  C35_43
REMARK    7  A    between atoms: C11_13  and  C33_41
REMARK    8  A    between atoms: C11_13  and  C34_42
REMARK    9  A    between atoms: C13_16  and  C26_31
REMARK   10  A    between atoms: C15_19  and  C20_25
REMARK   11  A    between atoms: C17_22  and  C18_23
REMARK   12  A    between atoms: C17_22  and  C19_24
REMARK   13  A    between atoms: C20_25  and  C21_26
REMARK   14  A    between atoms: C21_26  and  C22_27
REMARK   15  A    between atoms: C23_28  and  C24_29
REMARK   16  A    between atoms: C23_28  and  C25_30
REMARK   17  A    between atoms: C26_31  and  C27_33
REMARK   18  A    between atoms: C31_37  and  O5_39
REMARK   19  A    between atoms: C35_43  and  C36_44
REMARK   20  A    between atoms: C36_44  and  C37_45
REMARK   21  A    between atoms: C38_46  and  C39_47
REMARK   22  A    between atoms: C38_46  and  C40_48
REMARK                            x       y       z     vdW  Elec       q    Type
REMARK                         _______ _______ _______ _____ _____    ______ ____
ROOT
ATOM      7  C   UNL     1      49.611  16.673  17.443  0.00  0.00    -0.012 C 
ATOM      8  C   UNL     1      50.405  16.323  18.703  0.00  0.00    +0.079 C 
ATOM      9  C   UNL     1      49.765  15.099  19.374  0.00  0.00    -0.096 C 
ATOM     10  C   UNL     1      50.488  14.759  20.659  0.00  0.00    +0.060 C 
ATOM     11  C   UNL     1      51.668  13.826  20.457  0.00  0.00    -0.014 C 
ATOM     18  C   UNL     1      51.283  12.633  19.586  0.00  0.00    +0.115 C 
ATOM     19  C   UNL     1      50.185  11.824  20.281  0.00  0.00    +0.034 C 
ATOM     20  C   UNL     1      52.509  11.747  19.358  0.00  0.00    +0.081 C 
ATOM     21  O   UNL     1      50.799  13.115  18.328  0.00  0.00    -0.279 OA
ATOM     22  C   UNL     1      48.321  15.462  19.685  0.00  0.00    +0.387 C 
ATOM     23  O   UNL     1      47.872  15.447  20.806  0.00  0.00    -0.413 OA
ATOM     24  C   UNL     1      47.483  15.846  18.472  0.00  0.00    -0.132 C 
ATOM     31  C   UNL     1      47.538  14.670  17.521  0.00  0.00    +0.426 C 
ATOM     32  O   UNL     1      46.625  14.473  16.745  0.00  0.00    -0.415 OA
ATOM     33  C   UNL     1      48.690  13.776  17.536  0.00  0.00    -0.290 C 
ATOM     45  C   UNL     1      49.753  13.959  18.392  0.00  0.00    +0.203 C 
ATOM     46  C   UNL     1      48.174  17.046  17.810  0.00  0.00    -0.032 C 
ATOM     47  C   UNL     1      47.409  17.434  16.542  0.00  0.00    +0.046 C 
ATOM     48  C   UNL     1      48.187  18.230  18.779  0.00  0.00    +0.042 C 
ENDROOT
BRANCH  33  34
ATOM     34  C   UNL     1      48.716  12.636  16.606  0.00  0.00    +0.471 C 
ATOM     44  O   UNL     1      48.278  11.556  16.954  0.00  0.00    -0.483 OA
BRANCH  34  35
ATOM     35  C   UNL     1      49.276  12.803  15.249  0.00  0.00    -0.290 A 
ATOM     36  C   UNL     1      48.435  12.751  14.134  0.00  0.00    +0.075 A 
ATOM     37  C   UNL     1      48.958  12.907  12.869  0.00  0.00    -0.166 A 
ATOM     38  C   UNL     1      50.320  13.115  12.698  0.00  0.00    +0.283 A 
ATOM     39  O   UNL     1      50.832  13.267  11.450  0.00  0.00    -0.696 OA
ATOM     40  C   UNL     1      51.165  13.166  13.807  0.00  0.00    -0.067 A 
ATOM     43  C   UNL     1      50.645  13.018  15.078  0.00  0.00    +0.080 A 
BRANCH  40  41
ATOM     41  O   UNL     1      52.499  13.369  13.637  0.00  0.00    -0.489 OA
ATOM     42  H   UNL     1      52.777  14.287  13.761  0.00  0.00    +0.356 HD
ENDBRANCH  40  41
ENDBRANCH  34  35
ENDBRANCH  33  34
BRANCH   7   6
ATOM      6  C   UNL     1      50.276  17.856  16.738  0.00  0.00    +0.036 C 
BRANCH   6   5
ATOM      5  C   UNL     1      51.610  18.171  17.418  0.00  0.00    +0.046 C 
BRANCH   5   4
ATOM      1  C   UNL     1      52.133  18.883  20.096  0.00  0.00    +0.072 C 
ATOM      2  C   UNL     1      51.937  19.954  19.054  0.00  0.00    -0.134 C 
ATOM      3  C   UNL     1      52.089  21.405  19.429  0.00  0.00    +0.068 C 
ATOM      4  C   UNL     1      51.636  19.622  17.823  0.00  0.00    -0.059 C 
ENDBRANCH   5   4
ENDBRANCH   6   5
ENDBRANCH   7   6
BRANCH  11  12
ATOM     12  C   UNL     1      52.805  14.594  19.780  0.00  0.00    +0.029 C 
BRANCH  12  13
ATOM     13  C   UNL     1      53.659  15.285  20.845  0.00  0.00    +0.047 C 
BRANCH  13  14
ATOM     14  C   UNL     1      55.067  15.447  20.332  0.00  0.00    -0.054 C 
ATOM     15  C   UNL     1      55.985  15.983  21.098  0.00  0.00    -0.137 C 
ATOM     16  C   UNL     1      57.420  16.019  20.640  0.00  0.00    +0.069 C 
ATOM     17  C   UNL     1      55.605  16.563  22.436  0.00  0.00    +0.070 C 
ENDBRANCH  13  14
ENDBRANCH  12  13
ENDBRANCH  11  12
BRANCH  24  25
ATOM     25  C   UNL     1      46.042  16.167  18.872  0.00  0.00    +0.079 C 
BRANCH  25  26
ATOM     26  C   UNL     1      46.031  17.380  19.806  0.00  0.00    +0.047 C 
BRANCH  26  27
ATOM     27  C   UNL     1      44.609  17.717  20.172  0.00  0.00    -0.045 C 
ATOM     28  C   UNL     1      44.047  18.798  19.691  0.00  0.00    -0.139 C 
ATOM     29  C   UNL     1      42.589  19.073  19.956  0.00  0.00    +0.069 C 
ATOM     30  C   UNL     1      44.859  19.767  18.870  0.00  0.00    +0.072 C 
ENDBRANCH  26  27
ENDBRANCH  25  26
ENDBRANCH  24  25
TORSDOF 12
ENDMDL
