MODEL 1
REMARK VINA RESULT:      -6.1      0.000      0.000
REMARK  Name = ZINC95486249
REMARK  7 active torsions:
REMARK  status: ('A' for Active; 'I' for Inactive)
REMARK    1  A    between atoms: C1_1  and  C2_2
REMARK    2  A    between atoms: C6_6  and  C20_26
REMARK    3  A    between atoms: C6_6  and  C21_27
REMARK    4  A    between atoms: C10_11  and  C19_25
REMARK    5  A    between atoms: C14_16  and  C17_21
REMARK    6  A    between atoms: C17_21  and  O3_23
REMARK    7  A    between atoms: O3_23  and  C18_24
REMARK                            x       y       z     vdW  Elec       q    Type
REMARK                         _______ _______ _______ _____ _____    ______ ____
ROOT
ATOM      1  C   UNL     1      45.657  16.612  18.861  0.00  0.00    +0.016 C 
ATOM      2  C   UNL     1      45.280  16.922  20.323  0.00  0.00    -0.031 C 
ATOM      3  C   UNL     1      46.517  17.462  21.037  0.00  0.00    +0.020 C 
ATOM      4  C   UNL     1      47.611  16.399  21.127  0.00  0.00    -0.002 C 
ATOM      5  C   UNL     1      47.097  15.186  21.896  0.00  0.00    +0.013 C 
ATOM      6  C   UNL     1      45.865  14.595  21.214  0.00  0.00    -0.051 C 
ATOM      7  C   UNL     1      46.269  13.894  19.915  0.00  0.00    +0.020 C 
ATOM      8  C   UNL     1      45.326  13.472  22.130  0.00  0.00    +0.013 C 
ATOM      9  C   UNL     1      44.187  18.006  20.256  0.00  0.00    -0.049 C 
ATOM     10  C   UNL     1      44.547  19.021  19.177  0.00  0.00    +0.043 C 
ATOM     11  C   UNL     1      43.792  20.365  19.169  0.00  0.00    +0.043 C 
ATOM     12  C   UNL     1      44.638  21.400  19.983  0.00  0.00    +0.037 C 
ATOM     17  C   UNL     1      44.551  21.084  21.428  0.00  0.00    -0.007 C 
ATOM     18  C   UNL     1      45.235  19.813  21.849  0.00  0.00    +0.213 C 
ATOM     19  O   UNL     1      44.308  18.971  22.501  0.00  0.00    -0.347 OA
ATOM     20  C   UNL     1      43.482  18.286  21.529  0.00  0.00    +0.134 C 
ATOM     21  C   UNL     1      42.147  19.043  21.313  0.00  0.00    +0.016 C 
ATOM     22  C   UNL     1      43.023  16.960  22.188  0.00  0.00    +0.023 C 
ATOM     23  C   UNL     1      44.229  16.049  22.390  0.00  0.00    +0.020 C 
ATOM     24  C   UNL     1      44.788  15.654  21.016  0.00  0.00    +0.012 C 
ENDROOT
BRANCH  12  13
ATOM     13  C   UNL     1      44.102  22.786  19.729  0.00  0.00    +0.462 C 
ATOM     16  O   UNL     1      42.911  22.964  19.623  0.00  0.00    -0.503 OA
BRANCH  13  14
ATOM     14  O   UNL     1      44.947  23.824  19.621  0.00  0.00    -0.353 OA
ATOM     15  C   UNL     1      45.590  24.264  20.819  0.00  0.00    +0.257 C 
ENDBRANCH  13  14
ENDBRANCH  12  13
TORSDOF 2
ENDMDL
MODEL 2
REMARK VINA RESULT:      -5.8      3.548      5.174
REMARK  Name = ZINC95486249
REMARK  7 active torsions:
REMARK  status: ('A' for Active; 'I' for Inactive)
REMARK    1  A    between atoms: C1_1  and  C2_2
REMARK    2  A    between atoms: C6_6  and  C20_26
REMARK    3  A    between atoms: C6_6  and  C21_27
REMARK    4  A    between atoms: C10_11  and  C19_25
REMARK    5  A    between atoms: C14_16  and  C17_21
REMARK    6  A    between atoms: C17_21  and  O3_23
REMARK    7  A    between atoms: O3_23  and  C18_24
REMARK                            x       y       z     vdW  Elec       q    Type
REMARK                         _______ _______ _______ _____ _____    ______ ____
ROOT
ATOM      1  C   UNL     1      48.999  18.240  18.773  0.00  0.00    +0.016 C 
ATOM      2  C   UNL     1      48.783  19.448  19.707  0.00  0.00    -0.031 C 
ATOM      3  C   UNL     1      48.730  20.713  18.854  0.00  0.00    +0.020 C 
ATOM      4  C   UNL     1      50.072  20.976  18.171  0.00  0.00    -0.002 C 
ATOM      5  C   UNL     1      51.167  21.142  19.220  0.00  0.00    +0.013 C 
ATOM      6  C   UNL     1      51.274  19.893  20.093  0.00  0.00    -0.051 C 
ATOM      7  C   UNL     1      51.889  18.743  19.293  0.00  0.00    +0.020 C 
ATOM      8  C   UNL     1      52.295  20.200  21.213  0.00  0.00    +0.013 C 
ATOM      9  C   UNL     1      47.425  19.211  20.395  0.00  0.00    -0.049 C 
ATOM     10  C   UNL     1      46.431  18.661  19.378  0.00  0.00    +0.043 C 
ATOM     11  C   UNL     1      44.935  18.679  19.748  0.00  0.00    +0.043 C 
ATOM     12  C   UNL     1      44.311  19.996  19.176  0.00  0.00    +0.037 C 
ATOM     17  C   UNL     1      44.771  21.152  19.981  0.00  0.00    -0.007 C 
ATOM     18  C   UNL     1      46.231  21.486  19.847  0.00  0.00    +0.213 C 
ATOM     19  O   UNL     1      46.838  21.472  21.122  0.00  0.00    -0.347 OA
ATOM     20  C   UNL     1      47.116  20.111  21.531  0.00  0.00    +0.134 C 
ATOM     21  C   UNL     1      45.976  19.564  22.428  0.00  0.00    +0.016 C 
ATOM     22  C   UNL     1      48.320  20.174  22.505  0.00  0.00    +0.023 C 
ATOM     23  C   UNL     1      49.565  20.619  21.746  0.00  0.00    +0.020 C 
ATOM     24  C   UNL     1      49.927  19.542  20.713  0.00  0.00    +0.012 C 
ENDROOT
BRANCH  12  13
ATOM     13  C   UNL     1      42.808  19.897  19.235  0.00  0.00    +0.462 C 
ATOM     16  O   UNL     1      42.277  19.278  20.128  0.00  0.00    -0.503 OA
BRANCH  13  14
ATOM     14  O   UNL     1      42.058  20.497  18.297  0.00  0.00    -0.353 OA
ATOM     15  C   UNL     1      41.282  21.624  18.709  0.00  0.00    +0.257 C 
ENDBRANCH  13  14
ENDBRANCH  12  13
TORSDOF 2
ENDMDL
MODEL 3
REMARK VINA RESULT:      -5.8      4.368      6.160
REMARK  Name = ZINC95486249
REMARK  7 active torsions:
REMARK  status: ('A' for Active; 'I' for Inactive)
REMARK    1  A    between atoms: C1_1  and  C2_2
REMARK    2  A    between atoms: C6_6  and  C20_26
REMARK    3  A    between atoms: C6_6  and  C21_27
REMARK    4  A    between atoms: C10_11  and  C19_25
REMARK    5  A    between atoms: C14_16  and  C17_21
REMARK    6  A    between atoms: C17_21  and  O3_23
REMARK    7  A    between atoms: O3_23  and  C18_24
REMARK                            x       y       z     vdW  Elec       q    Type
REMARK                         _______ _______ _______ _____ _____    ______ ____
ROOT
ATOM      1  C   UNL     1      45.855  20.785  18.818  0.00  0.00    +0.016 C 
ATOM      2  C   UNL     1      46.515  19.884  19.881  0.00  0.00    -0.031 C 
ATOM      3  C   UNL     1      46.555  18.455  19.345  0.00  0.00    +0.020 C 
ATOM      4  C   UNL     1      45.146  17.891  19.167  0.00  0.00    -0.002 C 
ATOM      5  C   UNL     1      44.413  17.887  20.504  0.00  0.00    +0.013 C 
ATOM      6  C   UNL     1      44.329  19.299  21.080  0.00  0.00    -0.051 C 
ATOM      7  C   UNL     1      43.337  20.139  20.273  0.00  0.00    +0.020 C 
ATOM      8  C   UNL     1      43.710  19.185  22.492  0.00  0.00    +0.013 C 
ATOM      9  C   UNL     1      47.945  20.425  20.066  0.00  0.00    -0.049 C 
ATOM     10  C   UNL     1      48.524  20.796  18.705  0.00  0.00    +0.043 C 
ATOM     11  C   UNL     1      50.045  21.026  18.606  0.00  0.00    +0.043 C 
ATOM     12  C   UNL     1      50.711  19.678  18.172  0.00  0.00    +0.037 C 
ATOM     17  C   UNL     1      50.685  18.725  19.306  0.00  0.00    -0.007 C 
ATOM     18  C   UNL     1      49.322  18.220  19.688  0.00  0.00    +0.213 C 
ATOM     19  O   UNL     1      49.081  18.497  21.052  0.00  0.00    -0.347 OA
ATOM     20  C   UNL     1      48.693  19.881  21.223  0.00  0.00    +0.134 C 
ATOM     21  C   UNL     1      49.919  20.752  21.599  0.00  0.00    +0.016 C 
ATOM     22  C   UNL     1      47.820  19.945  22.502  0.00  0.00    +0.023 C 
ATOM     23  C   UNL     1      46.513  19.197  22.263  0.00  0.00    +0.020 C 
ATOM     24  C   UNL     1      45.711  19.933  21.179  0.00  0.00    +0.012 C 
ENDROOT
BRANCH  12  13
ATOM     13  C   UNL     1      52.137  19.942  17.757  0.00  0.00    +0.462 C 
ATOM     16  O   UNL     1      52.905  20.463  18.530  0.00  0.00    -0.503 OA
BRANCH  13  14
ATOM     14  O   UNL     1      52.553  19.598  16.527  0.00  0.00    -0.353 OA
ATOM     15  C   UNL     1      51.778  18.620  15.830  0.00  0.00    +0.257 C 
ENDBRANCH  13  14
ENDBRANCH  12  13
TORSDOF 2
ENDMDL
MODEL 4
REMARK VINA RESULT:      -5.7      3.529      5.251
REMARK  Name = ZINC95486249
REMARK  7 active torsions:
REMARK  status: ('A' for Active; 'I' for Inactive)
REMARK    1  A    between atoms: C1_1  and  C2_2
REMARK    2  A    between atoms: C6_6  and  C20_26
REMARK    3  A    between atoms: C6_6  and  C21_27
REMARK    4  A    between atoms: C10_11  and  C19_25
REMARK    5  A    between atoms: C14_16  and  C17_21
REMARK    6  A    between atoms: C17_21  and  O3_23
REMARK    7  A    between atoms: O3_23  and  C18_24
REMARK                            x       y       z     vdW  Elec       q    Type
REMARK                         _______ _______ _______ _____ _____    ______ ____
ROOT
ATOM      1  C   UNL     1      49.523  21.037  18.755  0.00  0.00    +0.016 C 
ATOM      2  C   UNL     1      49.232  19.590  19.200  0.00  0.00    -0.031 C 
ATOM      3  C   UNL     1      49.255  19.541  20.726  0.00  0.00    +0.020 C 
ATOM      4  C   UNL     1      50.651  19.849  21.268  0.00  0.00    -0.002 C 
ATOM      5  C   UNL     1      51.654  18.832  20.734  0.00  0.00    +0.013 C 
ATOM      6  C   UNL     1      51.683  18.851  19.207  0.00  0.00    -0.051 C 
ATOM      7  C   UNL     1      52.360  20.129  18.710  0.00  0.00    +0.020 C 
ATOM      8  C   UNL     1      52.607  17.698  18.750  0.00  0.00    +0.013 C 
ATOM      9  C   UNL     1      47.821  19.262  18.677  0.00  0.00    -0.049 C 
ATOM     10  C   UNL     1      46.915  20.472  18.876  0.00  0.00    +0.043 C 
ATOM     11  C   UNL     1      45.393  20.263  18.752  0.00  0.00    +0.043 C 
ATOM     12  C   UNL     1      44.823  19.995  20.185  0.00  0.00    +0.037 C 
ATOM     17  C   UNL     1      45.217  18.638  20.629  0.00  0.00    -0.007 C 
ATOM     18  C   UNL     1      46.683  18.453  20.903  0.00  0.00    +0.213 C 
ATOM     19  O   UNL     1      47.181  17.391  20.117  0.00  0.00    -0.347 OA
ATOM     20  C   UNL     1      47.419  17.838  18.761  0.00  0.00    +0.134 C 
ATOM     21  C   UNL     1      46.207  17.510  17.853  0.00  0.00    +0.016 C 
ATOM     22  C   UNL     1      48.537  16.934  18.182  0.00  0.00    +0.023 C 
ATOM     23  C   UNL     1      49.843  17.204  18.921  0.00  0.00    +0.020 C 
ATOM     24  C   UNL     1      50.288  18.645  18.631  0.00  0.00    +0.012 C 
ENDROOT
BRANCH  12  13
ATOM     13  C   UNL     1      43.319  20.106  20.149  0.00  0.00    +0.462 C 
ATOM     16  O   UNL     1      42.644  19.406  20.866  0.00  0.00    -0.503 OA
BRANCH  13  14
ATOM     14  O   UNL     1      42.731  20.982  19.319  0.00  0.00    -0.353 OA
ATOM     15  C   UNL     1      41.667  20.488  18.502  0.00  0.00    +0.257 C 
ENDBRANCH  13  14
ENDBRANCH  12  13
TORSDOF 2
ENDMDL
MODEL 5
REMARK VINA RESULT:      -5.7      3.096      6.822
REMARK  Name = ZINC95486249
REMARK  7 active torsions:
REMARK  status: ('A' for Active; 'I' for Inactive)
REMARK    1  A    between atoms: C1_1  and  C2_2
REMARK    2  A    between atoms: C6_6  and  C20_26
REMARK    3  A    between atoms: C6_6  and  C21_27
REMARK    4  A    between atoms: C10_11  and  C19_25
REMARK    5  A    between atoms: C14_16  and  C17_21
REMARK    6  A    between atoms: C17_21  and  O3_23
REMARK    7  A    between atoms: O3_23  and  C18_24
REMARK                            x       y       z     vdW  Elec       q    Type
REMARK                         _______ _______ _______ _____ _____    ______ ____
ROOT
ATOM      1  C   UNL     1      44.535  20.311  18.766  0.00  0.00    +0.016 C 
ATOM      2  C   UNL     1      45.777  19.968  19.613  0.00  0.00    -0.031 C 
ATOM      3  C   UNL     1      45.321  19.196  20.848  0.00  0.00    +0.020 C 
ATOM      4  C   UNL     1      44.451  20.067  21.755  0.00  0.00    -0.002 C 
ATOM      5  C   UNL     1      45.238  21.292  22.211  0.00  0.00    +0.013 C 
ATOM      6  C   UNL     1      45.706  22.112  21.010  0.00  0.00    -0.051 C 
ATOM      7  C   UNL     1      44.517  22.825  20.364  0.00  0.00    +0.020 C 
ATOM      8  C   UNL     1      46.613  23.242  21.550  0.00  0.00    +0.013 C 
ATOM      9  C   UNL     1      46.662  19.075  18.722  0.00  0.00    -0.049 C 
ATOM     10  C   UNL     1      45.781  18.089  17.962  0.00  0.00    +0.043 C 
ATOM     11  C   UNL     1      46.464  16.884  17.287  0.00  0.00    +0.043 C 
ATOM     12  C   UNL     1      46.412  15.678  18.284  0.00  0.00    +0.037 C 
ATOM     17  C   UNL     1      47.370  15.908  19.391  0.00  0.00    -0.007 C 
ATOM     18  C   UNL     1      47.009  17.026  20.329  0.00  0.00    +0.213 C 
ATOM     19  O   UNL     1      48.068  17.958  20.383  0.00  0.00    -0.347 OA
ATOM     20  C   UNL     1      48.033  18.826  19.225  0.00  0.00    +0.134 C 
ATOM     21  C   UNL     1      48.983  18.302  18.118  0.00  0.00    +0.016 C 
ATOM     22  C   UNL     1      48.698  20.160  19.646  0.00  0.00    +0.023 C 
ATOM     23  C   UNL     1      47.827  20.857  20.685  0.00  0.00    +0.020 C 
ATOM     24  C   UNL     1      46.493  21.249  20.032  0.00  0.00    +0.012 C 
ENDROOT
BRANCH  12  13
ATOM     13  C   UNL     1      46.774  14.412  17.549  0.00  0.00    +0.462 C 
ATOM     16  O   UNL     1      47.311  14.473  16.468  0.00  0.00    -0.503 OA
BRANCH  13  14
ATOM     14  O   UNL     1      46.499  13.216  18.095  0.00  0.00    -0.353 OA
ATOM     15  C   UNL     1      45.183  13.028  18.617  0.00  0.00    +0.257 C 
ENDBRANCH  13  14
ENDBRANCH  12  13
TORSDOF 2
ENDMDL
MODEL 6
REMARK VINA RESULT:      -5.7      2.802      4.475
REMARK  Name = ZINC95486249
REMARK  7 active torsions:
REMARK  status: ('A' for Active; 'I' for Inactive)
REMARK    1  A    between atoms: C1_1  and  C2_2
REMARK    2  A    between atoms: C6_6  and  C20_26
REMARK    3  A    between atoms: C6_6  and  C21_27
REMARK    4  A    between atoms: C10_11  and  C19_25
REMARK    5  A    between atoms: C14_16  and  C17_21
REMARK    6  A    between atoms: C17_21  and  O3_23
REMARK    7  A    between atoms: O3_23  and  C18_24
REMARK                            x       y       z     vdW  Elec       q    Type
REMARK                         _______ _______ _______ _____ _____    ______ ____
ROOT
ATOM      1  C   UNL     1      48.064  20.843  19.081  0.00  0.00    +0.016 C 
ATOM      2  C   UNL     1      47.519  20.051  20.286  0.00  0.00    -0.031 C 
ATOM      3  C   UNL     1      47.108  21.044  21.371  0.00  0.00    +0.020 C 
ATOM      4  C   UNL     1      48.319  21.804  21.911  0.00  0.00    -0.002 C 
ATOM      5  C   UNL     1      49.326  20.825  22.505  0.00  0.00    +0.013 C 
ATOM      6  C   UNL     1      49.784  19.816  21.455  0.00  0.00    -0.051 C 
ATOM      7  C   UNL     1      50.696  20.497  20.433  0.00  0.00    +0.020 C 
ATOM      8  C   UNL     1      50.681  18.780  22.172  0.00  0.00    +0.013 C 
ATOM      9  C   UNL     1      46.286  19.288  19.767  0.00  0.00    -0.049 C 
ATOM     10  C   UNL     1      45.484  20.194  18.839  0.00  0.00    +0.043 C 
ATOM     11  C   UNL     1      44.045  19.772  18.484  0.00  0.00    +0.043 C 
ATOM     12  C   UNL     1      43.073  20.470  19.492  0.00  0.00    +0.037 C 
ATOM     17  C   UNL     1      43.191  19.825  20.821  0.00  0.00    -0.007 C 
ATOM     18  C   UNL     1      44.496  20.054  21.531  0.00  0.00    +0.213 C 
ATOM     19  O   UNL     1      45.087  18.811  21.845  0.00  0.00    -0.347 OA
ATOM     20  C   UNL     1      45.739  18.255  20.678  0.00  0.00    +0.134 C 
ATOM     21  C   UNL     1      44.804  17.257  19.950  0.00  0.00    +0.016 C 
ATOM     22  C   UNL     1      46.880  17.342  21.196  0.00  0.00    +0.023 C 
ATOM     23  C   UNL     1      47.946  18.196  21.873  0.00  0.00    +0.020 C 
ATOM     24  C   UNL     1      48.594  19.108  20.821  0.00  0.00    +0.012 C 
ENDROOT
BRANCH  12  13
ATOM     13  C   UNL     1      41.658  20.342  18.985  0.00  0.00    +0.462 C 
ATOM     16  O   UNL     1      41.109  19.265  18.990  0.00  0.00    -0.503 OA
BRANCH  13  14
ATOM     14  O   UNL     1      41.008  21.424  18.527  0.00  0.00    -0.353 OA
ATOM     15  C   UNL     1      39.592  21.459  18.717  0.00  0.00    +0.257 C 
ENDBRANCH  13  14
ENDBRANCH  12  13
TORSDOF 2
ENDMDL
MODEL 7
REMARK VINA RESULT:      -5.5      4.823      7.829
REMARK  Name = ZINC95486249
REMARK  7 active torsions:
REMARK  status: ('A' for Active; 'I' for Inactive)
REMARK    1  A    between atoms: C1_1  and  C2_2
REMARK    2  A    between atoms: C6_6  and  C20_26
REMARK    3  A    between atoms: C6_6  and  C21_27
REMARK    4  A    between atoms: C10_11  and  C19_25
REMARK    5  A    between atoms: C14_16  and  C17_21
REMARK    6  A    between atoms: C17_21  and  O3_23
REMARK    7  A    between atoms: O3_23  and  C18_24
REMARK                            x       y       z     vdW  Elec       q    Type
REMARK                         _______ _______ _______ _____ _____    ______ ____
ROOT
ATOM      1  C   UNL     1      51.571  16.910  18.514  0.00  0.00    +0.016 C 
ATOM      2  C   UNL     1      50.330  17.802  18.313  0.00  0.00    -0.031 C 
ATOM      3  C   UNL     1      50.105  17.985  16.815  0.00  0.00    +0.020 C 
ATOM      4  C   UNL     1      51.256  18.758  16.172  0.00  0.00    -0.002 C 
ATOM      5  C   UNL     1      51.383  20.135  16.816  0.00  0.00    +0.013 C 
ATOM      6  C   UNL     1      51.627  20.010  18.318  0.00  0.00    -0.051 C 
ATOM      7  C   UNL     1      53.044  19.499  18.581  0.00  0.00    +0.020 C 
ATOM      8  C   UNL     1      51.594  21.438  18.911  0.00  0.00    +0.013 C 
ATOM      9  C   UNL     1      49.151  17.034  18.941  0.00  0.00    -0.049 C 
ATOM     10  C   UNL     1      49.271  15.554  18.593  0.00  0.00    +0.043 C 
ATOM     11  C   UNL     1      48.036  14.659  18.813  0.00  0.00    +0.043 C 
ATOM     12  C   UNL     1      47.243  14.589  17.465  0.00  0.00    +0.037 C 
ATOM     17  C   UNL     1      46.563  15.882  17.223  0.00  0.00    -0.007 C 
ATOM     18  C   UNL     1      47.473  17.039  16.919  0.00  0.00    +0.213 C 
ATOM     19  O   UNL     1      47.235  18.082  17.840  0.00  0.00    -0.347 OA
ATOM     20  C   UNL     1      47.895  17.803  19.098  0.00  0.00    +0.134 C 
ATOM     21  C   UNL     1      46.914  17.137  20.097  0.00  0.00    +0.016 C 
ATOM     22  C   UNL     1      48.187  19.172  19.764  0.00  0.00    +0.023 C 
ATOM     23  C   UNL     1      49.220  19.929  18.937  0.00  0.00    +0.020 C 
ATOM     24  C   UNL     1      50.549  19.159  18.979  0.00  0.00    +0.012 C 
ENDROOT
BRANCH  12  13
ATOM     13  C   UNL     1      46.223  13.481  17.548  0.00  0.00    +0.462 C 
ATOM     16  O   UNL     1      45.372  13.506  18.405  0.00  0.00    -0.503 OA
BRANCH  13  14
ATOM     14  O   UNL     1      46.260  12.467  16.668  0.00  0.00    -0.353 OA
ATOM     15  C   UNL     1      46.628  11.182  17.175  0.00  0.00    +0.257 C 
ENDBRANCH  13  14
ENDBRANCH  12  13
TORSDOF 2
ENDMDL
MODEL 8
REMARK VINA RESULT:      -5.5      2.040      2.972
REMARK  Name = ZINC95486249
REMARK  7 active torsions:
REMARK  status: ('A' for Active; 'I' for Inactive)
REMARK    1  A    between atoms: C1_1  and  C2_2
REMARK    2  A    between atoms: C6_6  and  C20_26
REMARK    3  A    between atoms: C6_6  and  C21_27
REMARK    4  A    between atoms: C10_11  and  C19_25
REMARK    5  A    between atoms: C14_16  and  C17_21
REMARK    6  A    between atoms: C17_21  and  O3_23
REMARK    7  A    between atoms: O3_23  and  C18_24
REMARK                            x       y       z     vdW  Elec       q    Type
REMARK                         _______ _______ _______ _____ _____    ______ ____
ROOT
ATOM      1  C   UNL     1      46.635  16.562  16.522  0.00  0.00    +0.016 C 
ATOM      2  C   UNL     1      46.687  16.267  18.034  0.00  0.00    -0.031 C 
ATOM      3  C   UNL     1      48.108  16.531  18.528  0.00  0.00    +0.020 C 
ATOM      4  C   UNL     1      49.102  15.555  17.900  0.00  0.00    -0.002 C 
ATOM      5  C   UNL     1      48.722  14.122  18.257  0.00  0.00    +0.013 C 
ATOM      6  C   UNL     1      47.311  13.798  17.769  0.00  0.00    -0.051 C 
ATOM      7  C   UNL     1      47.297  13.670  16.245  0.00  0.00    +0.020 C 
ATOM      8  C   UNL     1      46.953  12.390  18.298  0.00  0.00    +0.013 C 
ATOM      9  C   UNL     1      45.702  17.252  18.691  0.00  0.00    -0.049 C 
ATOM     10  C   UNL     1      45.836  18.618  18.028  0.00  0.00    +0.043 C 
ATOM     11  C   UNL     1      45.211  19.833  18.742  0.00  0.00    +0.043 C 
ATOM     12  C   UNL     1      46.321  20.500  19.622  0.00  0.00    +0.037 C 
ATOM     17  C   UNL     1      46.600  19.645  20.800  0.00  0.00    -0.007 C 
ATOM     18  C   UNL     1      47.273  18.336  20.496  0.00  0.00    +0.213 C 
ATOM     19  O   UNL     1      46.494  17.275  21.006  0.00  0.00    -0.347 OA
ATOM     20  C   UNL     1      45.387  16.992  20.115  0.00  0.00    +0.134 C 
ATOM     21  C   UNL     1      44.105  17.726  20.583  0.00  0.00    +0.016 C 
ATOM     22  C   UNL     1      45.022  15.499  20.317  0.00  0.00    +0.023 C 
ATOM     23  C   UNL     1      46.165  14.624  19.815  0.00  0.00    +0.020 C 
ATOM     24  C   UNL     1      46.304  14.812  18.297  0.00  0.00    +0.012 C 
ENDROOT
BRANCH  12  13
ATOM     13  C   UNL     1      45.843  21.857  20.076  0.00  0.00    +0.462 C 
ATOM     16  O   UNL     1      46.168  22.281  21.160  0.00  0.00    -0.503 OA
BRANCH  13  14
ATOM     14  O   UNL     1      45.056  22.594  19.275  0.00  0.00    -0.353 OA
ATOM     15  C   UNL     1      43.795  23.005  19.806  0.00  0.00    +0.257 C 
ENDBRANCH  13  14
ENDBRANCH  12  13
TORSDOF 2
ENDMDL
MODEL 9
REMARK VINA RESULT:      -5.4      2.246      3.909
REMARK  Name = ZINC95486249
REMARK  7 active torsions:
REMARK  status: ('A' for Active; 'I' for Inactive)
REMARK    1  A    between atoms: C1_1  and  C2_2
REMARK    2  A    between atoms: C6_6  and  C20_26
REMARK    3  A    between atoms: C6_6  and  C21_27
REMARK    4  A    between atoms: C10_11  and  C19_25
REMARK    5  A    between atoms: C14_16  and  C17_21
REMARK    6  A    between atoms: C17_21  and  O3_23
REMARK    7  A    between atoms: O3_23  and  C18_24
REMARK                            x       y       z     vdW  Elec       q    Type
REMARK                         _______ _______ _______ _____ _____    ______ ____
ROOT
ATOM      1  C   UNL     1      45.541  14.627  19.579  0.00  0.00    +0.016 C 
ATOM      2  C   UNL     1      46.614  15.664  19.192  0.00  0.00    -0.031 C 
ATOM      3  C   UNL     1      46.558  15.876  17.681  0.00  0.00    +0.020 C 
ATOM      4  C   UNL     1      46.949  14.603  16.930  0.00  0.00    -0.002 C 
ATOM      5  C   UNL     1      48.366  14.188  17.311  0.00  0.00    +0.013 C 
ATOM      6  C   UNL     1      48.475  13.947  18.815  0.00  0.00    -0.051 C 
ATOM      7  C   UNL     1      47.744  12.658  19.195  0.00  0.00    +0.020 C 
ATOM      8  C   UNL     1      49.964  13.679  19.132  0.00  0.00    +0.013 C 
ATOM      9  C   UNL     1      46.230  16.963  19.927  0.00  0.00    -0.049 C 
ATOM     10  C   UNL     1      44.718  17.152  19.862  0.00  0.00    +0.043 C 
ATOM     11  C   UNL     1      44.149  18.539  20.218  0.00  0.00    +0.043 C 
ATOM     12  C   UNL     1      43.993  19.354  18.891  0.00  0.00    +0.037 C 
ATOM     17  C   UNL     1      45.330  19.763  18.401  0.00  0.00    -0.007 C 
ATOM     18  C   UNL     1      46.201  18.642  17.907  0.00  0.00    +0.213 C 
ATOM     19  O   UNL     1      47.423  18.647  18.614  0.00  0.00    -0.347 OA
ATOM     20  C   UNL     1      47.253  18.034  19.915  0.00  0.00    +0.134 C 
ATOM     21  C   UNL     1      46.997  19.111  21.000  0.00  0.00    +0.016 C 
ATOM     22  C   UNL     1      48.634  17.458  20.322  0.00  0.00    +0.023 C 
ATOM     23  C   UNL     1      48.999  16.308  19.390  0.00  0.00    +0.020 C 
ATOM     24  C   UNL     1      47.997  15.163  19.599  0.00  0.00    +0.012 C 
ENDROOT
BRANCH  12  13
ATOM     13  C   UNL     1      43.150  20.576  19.157  0.00  0.00    +0.462 C 
ATOM     16  O   UNL     1      43.558  21.445  19.892  0.00  0.00    -0.503 OA
BRANCH  13  14
ATOM     14  O   UNL     1      41.945  20.700  18.578  0.00  0.00    -0.353 OA
ATOM     15  C   UNL     1      41.275  21.953  18.733  0.00  0.00    +0.257 C 
ENDBRANCH  13  14
ENDBRANCH  12  13
TORSDOF 2
ENDMDL
