MODEL 1
REMARK VINA RESULT:      -6.0      0.000      0.000
REMARK  Name = ZINC95486328
REMARK  6 active torsions:
REMARK  status: ('A' for Active; 'I' for Inactive)
REMARK    1  A    between atoms: C1_1  and  O1_2
REMARK    2  A    between atoms: O1_2  and  C2_3
REMARK    3  A    between atoms: C8_10  and  C9_12
REMARK    4  A    between atoms: C15_18  and  O6_27
REMARK    5  A    between atoms: C16_19  and  C17_20
REMARK    6  A    between atoms: O6_27  and  C22_28
REMARK                            x       y       z     vdW  Elec       q    Type
REMARK                         _______ _______ _______ _____ _____    ______ ____
ROOT
ATOM      3  C   UNL     1      47.988  17.773  17.711  0.00  0.00    +0.223 A 
ATOM      4  C   UNL     1      46.628  18.031  17.738  0.00  0.00    -0.089 A 
ATOM      5  C   UNL     1      46.134  19.087  18.489  0.00  0.00    +0.209 A 
ATOM      6  C   UNL     1      47.021  19.894  19.222  0.00  0.00    -0.282 A 
ATOM      7  C   UNL     1      48.396  19.637  19.197  0.00  0.00    +0.242 A 
ATOM     10  C   UNL     1      46.468  21.010  20.010  0.00  0.00    +0.425 A 
ATOM     11  C   UNL     1      45.065  21.198  19.978  0.00  0.00    -0.143 A 
ATOM     12  C   UNL     1      44.294  20.359  19.235  0.00  0.00    +0.203 A 
ATOM     19  O   UNL     1      47.191  21.742  20.666  0.00  0.00    -0.453 OA
ATOM     20  O   UNL     1      44.809  19.347  18.522  0.00  0.00    -0.218 OA
ATOM     21  C   UNL     1      48.878  18.569  18.444  0.00  0.00    -0.093 A 
ENDROOT
BRANCH  21  22
ATOM     22  C   UNL     1      50.333  18.279  18.411  0.00  0.00    -0.274 C 
ATOM     23  C   UNL     1      51.270  18.914  17.665  0.00  0.00    +0.363 C 
ATOM     24  O   UNL     1      52.490  18.405  17.872  0.00  0.00    -0.219 OA
ATOM     25  C   UNL     1      52.456  17.392  18.775  0.00  0.00    -0.059 C 
ATOM     26  C   UNL     1      53.495  16.668  19.208  0.00  0.00    +0.199 C 
ATOM     27  C   UNL     1      51.043  17.250  19.188  0.00  0.00    +0.401 C 
ATOM     28  O   UNL     1      50.572  16.459  19.988  0.00  0.00    -0.427 OA
ENDBRANCH  21  22
BRANCH  12  13
ATOM     13  C   UNL     1      42.832  20.572  19.214  0.00  0.00    -0.073 A 
ATOM     14  C   UNL     1      42.306  21.781  18.756  0.00  0.00    +0.056 A 
ATOM     15  C   UNL     1      40.940  21.972  18.739  0.00  0.00    +0.014 A 
ATOM     16  C   UNL     1      40.092  20.970  19.174  0.00  0.00    +0.037 A 
ATOM     17  C   UNL     1      40.607  19.768  19.630  0.00  0.00    +0.009 A 
ATOM     18  C   UNL     1      41.971  19.562  19.647  0.00  0.00    +0.054 A 
ENDBRANCH  12  13
BRANCH   3   2
ATOM      1  C   UNL     1      48.105  15.420  17.397  0.00  0.00    +0.255 C 
ATOM      2  O   UNL     1      48.462  16.736  16.973  0.00  0.00    -0.294 OA
ENDBRANCH   3   2
BRANCH   7   8
ATOM      8  O   UNL     1      49.252  20.416  19.906  0.00  0.00    -0.313 OA
ATOM      9  C   UNL     1      49.692  19.914  21.168  0.00  0.00    +0.248 C 
ENDBRANCH   7   8
TORSDOF 4
ENDMDL
MODEL 2
REMARK VINA RESULT:      -5.7      3.929      5.946
REMARK  Name = ZINC95486328
REMARK  6 active torsions:
REMARK  status: ('A' for Active; 'I' for Inactive)
REMARK    1  A    between atoms: C1_1  and  O1_2
REMARK    2  A    between atoms: O1_2  and  C2_3
REMARK    3  A    between atoms: C8_10  and  C9_12
REMARK    4  A    between atoms: C15_18  and  O6_27
REMARK    5  A    between atoms: C16_19  and  C17_20
REMARK    6  A    between atoms: O6_27  and  C22_28
REMARK                            x       y       z     vdW  Elec       q    Type
REMARK                         _______ _______ _______ _____ _____    ______ ____
ROOT
ATOM      3  C   UNL     1      47.069  12.631  16.406  0.00  0.00    +0.223 A 
ATOM      4  C   UNL     1      46.162  13.218  17.272  0.00  0.00    -0.089 A 
ATOM      5  C   UNL     1      46.498  14.381  17.949  0.00  0.00    +0.209 A 
ATOM      6  C   UNL     1      47.763  14.962  17.751  0.00  0.00    -0.282 A 
ATOM      7  C   UNL     1      48.681  14.373  16.875  0.00  0.00    +0.242 A 
ATOM     10  C   UNL     1      48.092  16.198  18.482  0.00  0.00    +0.425 A 
ATOM     11  C   UNL     1      47.102  16.726  19.346  0.00  0.00    -0.143 A 
ATOM     12  C   UNL     1      45.908  16.086  19.468  0.00  0.00    +0.203 A 
ATOM     19  O   UNL     1      49.174  16.745  18.348  0.00  0.00    -0.453 OA
ATOM     20  O   UNL     1      45.621  14.962  18.797  0.00  0.00    -0.218 OA
ATOM     21  C   UNL     1      48.334  13.200  16.206  0.00  0.00    -0.093 A 
ENDROOT
BRANCH  21  22
ATOM     22  C   UNL     1      49.299  12.560  15.279  0.00  0.00    -0.274 C 
ATOM     23  C   UNL     1      49.523  12.893  13.984  0.00  0.00    +0.363 C 
ATOM     24  O   UNL     1      50.460  12.113  13.432  0.00  0.00    -0.219 OA
ATOM     25  C   UNL     1      50.932  11.204  14.321  0.00  0.00    -0.059 C 
ATOM     26  C   UNL     1      51.872  10.277  14.098  0.00  0.00    +0.199 C 
ATOM     27  C   UNL     1      50.205  11.442  15.587  0.00  0.00    +0.401 C 
ATOM     28  O   UNL     1      50.328  10.847  16.645  0.00  0.00    -0.427 OA
ENDBRANCH  21  22
BRANCH  12  13
ATOM     13  C   UNL     1      44.890  16.653  20.375  0.00  0.00    -0.073 A 
ATOM     14  C   UNL     1      44.517  15.963  21.530  0.00  0.00    +0.056 A 
ATOM     15  C   UNL     1      43.566  16.499  22.373  0.00  0.00    +0.014 A 
ATOM     16  C   UNL     1      42.982  17.717  22.077  0.00  0.00    +0.037 A 
ATOM     17  C   UNL     1      43.346  18.407  20.934  0.00  0.00    +0.009 A 
ATOM     18  C   UNL     1      44.301  17.885  20.084  0.00  0.00    +0.054 A 
ENDBRANCH  12  13
BRANCH   3   2
ATOM      1  C   UNL     1      46.591  10.307  16.532  0.00  0.00    +0.255 C 
ATOM      2  O   UNL     1      46.732  11.493  15.748  0.00  0.00    -0.294 OA
ENDBRANCH   3   2
BRANCH   7   8
ATOM      8  O   UNL     1      49.903  14.933  16.684  0.00  0.00    -0.313 OA
ATOM      9  C   UNL     1      50.991  14.384  17.428  0.00  0.00    +0.248 C 
ENDBRANCH   7   8
TORSDOF 4
ENDMDL
MODEL 3
REMARK VINA RESULT:      -5.6      2.463      7.106
REMARK  Name = ZINC95486328
REMARK  6 active torsions:
REMARK  status: ('A' for Active; 'I' for Inactive)
REMARK    1  A    between atoms: C1_1  and  O1_2
REMARK    2  A    between atoms: O1_2  and  C2_3
REMARK    3  A    between atoms: C8_10  and  C9_12
REMARK    4  A    between atoms: C15_18  and  O6_27
REMARK    5  A    between atoms: C16_19  and  C17_20
REMARK    6  A    between atoms: O6_27  and  C22_28
REMARK                            x       y       z     vdW  Elec       q    Type
REMARK                         _______ _______ _______ _____ _____    ______ ____
ROOT
ATOM      3  C   UNL     1      45.125  18.107  20.128  0.00  0.00    +0.223 A 
ATOM      4  C   UNL     1      45.089  16.870  19.506  0.00  0.00    -0.089 A 
ATOM      5  C   UNL     1      46.110  16.491  18.647  0.00  0.00    +0.209 A 
ATOM      6  C   UNL     1      47.184  17.369  18.413  0.00  0.00    -0.282 A 
ATOM      7  C   UNL     1      47.225  18.618  19.040  0.00  0.00    +0.242 A 
ATOM     10  C   UNL     1      48.255  16.939  17.498  0.00  0.00    +0.425 A 
ATOM     11  C   UNL     1      48.133  15.658  16.908  0.00  0.00    -0.143 A 
ATOM     12  C   UNL     1      47.053  14.885  17.201  0.00  0.00    +0.203 A 
ATOM     19  O   UNL     1      49.210  17.660  17.257  0.00  0.00    -0.453 OA
ATOM     20  O   UNL     1      46.084  15.287  18.036  0.00  0.00    -0.218 OA
ATOM     21  C   UNL     1      46.188  18.989  19.895  0.00  0.00    -0.093 A 
ENDROOT
BRANCH  21  22
ATOM     22  C   UNL     1      46.214  20.314  20.563  0.00  0.00    -0.274 C 
ATOM     23  C   UNL     1      46.593  20.571  21.839  0.00  0.00    +0.363 C 
ATOM     24  O   UNL     1      46.496  21.875  22.126  0.00  0.00    -0.219 OA
ATOM     25  C   UNL     1      46.047  22.583  21.060  0.00  0.00    -0.059 C 
ATOM     26  C   UNL     1      45.836  23.904  21.005  0.00  0.00    +0.199 C 
ATOM     27  C   UNL     1      45.838  21.606  19.968  0.00  0.00    +0.401 C 
ATOM     28  O   UNL     1      45.444  21.823  18.835  0.00  0.00    -0.427 OA
ENDBRANCH  21  22
BRANCH  12  13
ATOM     13  C   UNL     1      46.945  13.552  16.574  0.00  0.00    -0.073 A 
ATOM     14  C   UNL     1      47.751  13.222  15.483  0.00  0.00    +0.056 A 
ATOM     15  C   UNL     1      47.644  11.974  14.905  0.00  0.00    +0.014 A 
ATOM     16  C   UNL     1      46.741  11.051  15.402  0.00  0.00    +0.037 A 
ATOM     17  C   UNL     1      45.939  11.372  16.483  0.00  0.00    +0.009 A 
ATOM     18  C   UNL     1      46.039  12.615  17.076  0.00  0.00    +0.054 A 
ENDBRANCH  12  13
BRANCH   3   2
ATOM      1  C   UNL     1      42.898  18.901  20.365  0.00  0.00    +0.255 C 
ATOM      2  O   UNL     1      44.120  18.469  20.966  0.00  0.00    -0.294 OA
ENDBRANCH   3   2
BRANCH   7   8
ATOM      8  O   UNL     1      48.260  19.466  18.813  0.00  0.00    -0.313 OA
ATOM      9  C   UNL     1      49.310  19.481  19.781  0.00  0.00    +0.248 C 
ENDBRANCH   7   8
TORSDOF 4
ENDMDL
MODEL 4
REMARK VINA RESULT:      -5.5      2.889      6.615
REMARK  Name = ZINC95486328
REMARK  6 active torsions:
REMARK  status: ('A' for Active; 'I' for Inactive)
REMARK    1  A    between atoms: C1_1  and  O1_2
REMARK    2  A    between atoms: O1_2  and  C2_3
REMARK    3  A    between atoms: C8_10  and  C9_12
REMARK    4  A    between atoms: C15_18  and  O6_27
REMARK    5  A    between atoms: C16_19  and  C17_20
REMARK    6  A    between atoms: O6_27  and  C22_28
REMARK                            x       y       z     vdW  Elec       q    Type
REMARK                         _______ _______ _______ _____ _____    ______ ____
ROOT
ATOM      3  C   UNL     1      48.447  18.463  18.385  0.00  0.00    +0.223 A 
ATOM      4  C   UNL     1      47.671  17.367  18.048  0.00  0.00    -0.089 A 
ATOM      5  C   UNL     1      48.264  16.225  17.531  0.00  0.00    +0.209 A 
ATOM      6  C   UNL     1      49.658  16.186  17.350  0.00  0.00    -0.282 A 
ATOM      7  C   UNL     1      50.446  17.291  17.690  0.00  0.00    +0.242 A 
ATOM     10  C   UNL     1      50.261  14.960  16.800  0.00  0.00    +0.425 A 
ATOM     11  C   UNL     1      49.389  13.890  16.485  0.00  0.00    -0.143 A 
ATOM     12  C   UNL     1      48.053  14.030  16.698  0.00  0.00    +0.203 A 
ATOM     19  O   UNL     1      51.464  14.870  16.622  0.00  0.00    -0.453 OA
ATOM     20  O   UNL     1      47.515  15.151  17.199  0.00  0.00    -0.218 OA
ATOM     21  C   UNL     1      49.836  18.434  18.203  0.00  0.00    -0.093 A 
ENDROOT
BRANCH  21  22
ATOM     22  C   UNL     1      50.657  19.616  18.562  0.00  0.00    -0.274 C 
ATOM     23  C   UNL     1      51.058  20.609  17.730  0.00  0.00    +0.363 C 
ATOM     24  O   UNL     1      51.788  21.526  18.376  0.00  0.00    -0.219 OA
ATOM     25  C   UNL     1      51.927  21.212  19.688  0.00  0.00    -0.059 C 
ATOM     26  C   UNL     1      52.594  21.912  20.614  0.00  0.00    +0.199 C 
ATOM     27  C   UNL     1      51.190  19.945  19.894  0.00  0.00    +0.401 C 
ATOM     28  O   UNL     1      51.057  19.316  20.930  0.00  0.00    -0.427 OA
ENDBRANCH  21  22
BRANCH  12  13
ATOM     13  C   UNL     1      47.160  12.902  16.362  0.00  0.00    -0.073 A 
ATOM     14  C   UNL     1      45.962  12.725  17.057  0.00  0.00    +0.056 A 
ATOM     15  C   UNL     1      45.132  11.670  16.736  0.00  0.00    +0.014 A 
ATOM     16  C   UNL     1      45.485  10.789  15.731  0.00  0.00    +0.037 A 
ATOM     17  C   UNL     1      46.671  10.958  15.038  0.00  0.00    +0.009 A 
ATOM     18  C   UNL     1      47.508  12.012  15.344  0.00  0.00    +0.054 A 
ENDBRANCH  12  13
BRANCH   3   2
ATOM      1  C   UNL     1      46.434  19.659  18.791  0.00  0.00    +0.255 C 
ATOM      2  O   UNL     1      47.857  19.576  18.891  0.00  0.00    -0.294 OA
ENDBRANCH   3   2
BRANCH   7   8
ATOM      8  O   UNL     1      51.791  17.253  17.515  0.00  0.00    -0.313 OA
ATOM      9  C   UNL     1      52.586  16.950  18.662  0.00  0.00    +0.248 C 
ENDBRANCH   7   8
TORSDOF 4
ENDMDL
MODEL 5
REMARK VINA RESULT:      -5.5      3.298      5.646
REMARK  Name = ZINC95486328
REMARK  6 active torsions:
REMARK  status: ('A' for Active; 'I' for Inactive)
REMARK    1  A    between atoms: C1_1  and  O1_2
REMARK    2  A    between atoms: O1_2  and  C2_3
REMARK    3  A    between atoms: C8_10  and  C9_12
REMARK    4  A    between atoms: C15_18  and  O6_27
REMARK    5  A    between atoms: C16_19  and  C17_20
REMARK    6  A    between atoms: O6_27  and  C22_28
REMARK                            x       y       z     vdW  Elec       q    Type
REMARK                         _______ _______ _______ _____ _____    ______ ____
ROOT
ATOM      3  C   UNL     1      47.438  13.589  16.420  0.00  0.00    +0.223 A 
ATOM      4  C   UNL     1      46.685  14.676  16.830  0.00  0.00    -0.089 A 
ATOM      5  C   UNL     1      47.312  15.841  17.247  0.00  0.00    +0.209 A 
ATOM      6  C   UNL     1      48.716  15.913  17.249  0.00  0.00    -0.282 A 
ATOM      7  C   UNL     1      49.480  14.817  16.834  0.00  0.00    +0.242 A 
ATOM     10  C   UNL     1      49.355  17.163  17.695  0.00  0.00    +0.425 A 
ATOM     11  C   UNL     1      48.506  18.221  18.097  0.00  0.00    -0.143 A 
ATOM     12  C   UNL     1      47.157  18.050  18.057  0.00  0.00    +0.203 A 
ATOM     19  O   UNL     1      50.569  17.280  17.718  0.00  0.00    -0.453 OA
ATOM     20  O   UNL     1      46.587  16.907  17.649  0.00  0.00    -0.218 OA
ATOM     21  C   UNL     1      48.837  13.650  16.425  0.00  0.00    -0.093 A 
ENDROOT
BRANCH  21  22
ATOM     22  C   UNL     1      49.633  12.477  15.987  0.00  0.00    -0.274 C 
ATOM     23  C   UNL     1      50.020  11.427  16.754  0.00  0.00    +0.363 C 
ATOM     24  O   UNL     1      50.729  10.539  16.048  0.00  0.00    -0.219 OA
ATOM     25  C   UNL     1      50.865  10.930  14.757  0.00  0.00    -0.059 C 
ATOM     26  C   UNL     1      51.514  10.277  13.785  0.00  0.00    +0.199 C 
ATOM     27  C   UNL     1      50.152  12.221  14.634  0.00  0.00    +0.401 C 
ATOM     28  O   UNL     1      50.025  12.915  13.640  0.00  0.00    -0.427 OA
ENDBRANCH  21  22
BRANCH  12  13
ATOM     13  C   UNL     1      46.288  19.166  18.481  0.00  0.00    -0.073 A 
ATOM     14  C   UNL     1      44.903  18.998  18.529  0.00  0.00    +0.056 A 
ATOM     15  C   UNL     1      44.097  20.045  18.928  0.00  0.00    +0.014 A 
ATOM     16  C   UNL     1      44.659  21.259  19.278  0.00  0.00    +0.037 A 
ATOM     17  C   UNL     1      46.031  21.434  19.233  0.00  0.00    +0.009 A 
ATOM     18  C   UNL     1      46.849  20.393  18.842  0.00  0.00    +0.054 A 
ENDBRANCH  12  13
BRANCH   3   2
ATOM      1  C   UNL     1      45.812  11.918  16.880  0.00  0.00    +0.255 C 
ATOM      2  O   UNL     1      46.814  12.453  16.014  0.00  0.00    -0.294 OA
ENDBRANCH   3   2
BRANCH   7   8
ATOM      8  O   UNL     1      50.836  14.885  16.837  0.00  0.00    -0.313 OA
ATOM      9  C   UNL     1      51.510  14.351  17.977  0.00  0.00    +0.248 C 
ENDBRANCH   7   8
TORSDOF 4
ENDMDL
MODEL 6
REMARK VINA RESULT:      -5.5      3.634      6.316
REMARK  Name = ZINC95486328
REMARK  6 active torsions:
REMARK  status: ('A' for Active; 'I' for Inactive)
REMARK    1  A    between atoms: C1_1  and  O1_2
REMARK    2  A    between atoms: O1_2  and  C2_3
REMARK    3  A    between atoms: C8_10  and  C9_12
REMARK    4  A    between atoms: C15_18  and  O6_27
REMARK    5  A    between atoms: C16_19  and  C17_20
REMARK    6  A    between atoms: O6_27  and  C22_28
REMARK                            x       y       z     vdW  Elec       q    Type
REMARK                         _______ _______ _______ _____ _____    ______ ____
ROOT
ATOM      3  C   UNL     1      51.285  17.233  18.036  0.00  0.00    +0.223 A 
ATOM      4  C   UNL     1      50.768  16.042  17.555  0.00  0.00    -0.089 A 
ATOM      5  C   UNL     1      49.396  15.876  17.434  0.00  0.00    +0.209 A 
ATOM      6  C   UNL     1      48.533  16.925  17.800  0.00  0.00    -0.282 A 
ATOM      7  C   UNL     1      49.052  18.130  18.285  0.00  0.00    +0.242 A 
ATOM     10  C   UNL     1      47.081  16.722  17.659  0.00  0.00    +0.425 A 
ATOM     11  C   UNL     1      46.644  15.472  17.159  0.00  0.00    -0.143 A 
ATOM     12  C   UNL     1      47.561  14.522  16.833  0.00  0.00    +0.203 A 
ATOM     19  O   UNL     1      46.286  17.597  17.962  0.00  0.00    -0.453 OA
ATOM     20  O   UNL     1      48.881  14.719  16.966  0.00  0.00    -0.218 OA
ATOM     21  C   UNL     1      50.432  18.280  18.409  0.00  0.00    -0.093 A 
ENDROOT
BRANCH  21  22
ATOM     22  C   UNL     1      50.998  19.549  18.928  0.00  0.00    -0.274 C 
ATOM     23  C   UNL     1      51.162  20.706  18.239  0.00  0.00    +0.363 C 
ATOM     24  O   UNL     1      51.702  21.661  19.006  0.00  0.00    -0.219 OA
ATOM     25  C   UNL     1      51.937  21.211  20.263  0.00  0.00    -0.059 C 
ATOM     26  C   UNL     1      52.467  21.905  21.278  0.00  0.00    +0.199 C 
ATOM     27  C   UNL     1      51.485  19.802  20.293  0.00  0.00    +0.401 C 
ATOM     28  O   UNL     1      51.513  19.027  21.234  0.00  0.00    -0.427 OA
ENDBRANCH  21  22
BRANCH  12  13
ATOM     13  C   UNL     1      47.085  13.225  16.313  0.00  0.00    -0.073 A 
ATOM     14  C   UNL     1      45.983  12.597  16.897  0.00  0.00    +0.056 A 
ATOM     15  C   UNL     1      45.542  11.385  16.405  0.00  0.00    +0.014 A 
ATOM     16  C   UNL     1      46.190  10.792  15.336  0.00  0.00    +0.037 A 
ATOM     17  C   UNL     1      47.283  11.409  14.752  0.00  0.00    +0.009 A 
ATOM     18  C   UNL     1      47.731  12.624  15.230  0.00  0.00    +0.054 A 
ENDBRANCH  12  13
BRANCH   3   2
ATOM      1  C   UNL     1      53.292  16.578  19.127  0.00  0.00    +0.255 C 
ATOM      2  O   UNL     1      52.629  17.385  18.152  0.00  0.00    -0.294 OA
ENDBRANCH   3   2
BRANCH   7   8
ATOM      8  O   UNL     1      48.220  19.141  18.640  0.00  0.00    -0.313 OA
ATOM      9  C   UNL     1      47.933  19.288  20.031  0.00  0.00    +0.248 C 
ENDBRANCH   7   8
TORSDOF 4
ENDMDL
MODEL 7
REMARK VINA RESULT:      -5.4      2.760      4.674
REMARK  Name = ZINC95486328
REMARK  6 active torsions:
REMARK  status: ('A' for Active; 'I' for Inactive)
REMARK    1  A    between atoms: C1_1  and  O1_2
REMARK    2  A    between atoms: O1_2  and  C2_3
REMARK    3  A    between atoms: C8_10  and  C9_12
REMARK    4  A    between atoms: C15_18  and  O6_27
REMARK    5  A    between atoms: C16_19  and  C17_20
REMARK    6  A    between atoms: O6_27  and  C22_28
REMARK                            x       y       z     vdW  Elec       q    Type
REMARK                         _______ _______ _______ _____ _____    ______ ____
ROOT
ATOM      3  C   UNL     1      50.187  16.564  17.152  0.00  0.00    +0.223 A 
ATOM      4  C   UNL     1      49.401  17.664  17.451  0.00  0.00    -0.089 A 
ATOM      5  C   UNL     1      48.110  17.489  17.929  0.00  0.00    +0.209 A 
ATOM      6  C   UNL     1      47.605  16.189  18.109  0.00  0.00    -0.282 A 
ATOM      7  C   UNL     1      48.397  15.075  17.809  0.00  0.00    +0.242 A 
ATOM     10  C   UNL     1      46.232  16.033  18.619  0.00  0.00    +0.425 A 
ATOM     11  C   UNL     1      45.502  17.214  18.897  0.00  0.00    -0.143 A 
ATOM     12  C   UNL     1      46.084  18.426  18.688  0.00  0.00    +0.203 A 
ATOM     19  O   UNL     1      45.742  14.930  18.794  0.00  0.00    -0.453 OA
ATOM     20  O   UNL     1      47.335  18.555  18.223  0.00  0.00    -0.218 OA
ATOM     21  C   UNL     1      49.689  15.266  17.323  0.00  0.00    -0.093 A 
ENDROOT
BRANCH  21  22
ATOM     22  C   UNL     1      50.540  14.095  16.995  0.00  0.00    -0.274 C 
ATOM     23  C   UNL     1      51.569  13.608  17.731  0.00  0.00    +0.363 C 
ATOM     24  O   UNL     1      52.127  12.540  17.148  0.00  0.00    -0.219 OA
ATOM     25  C   UNL     1      51.508  12.236  15.980  0.00  0.00    -0.059 C 
ATOM     26  C   UNL     1      51.813  11.231  15.149  0.00  0.00    +0.199 C 
ATOM     27  C   UNL     1      50.427  13.231  15.809  0.00  0.00    +0.401 C 
ATOM     28  O   UNL     1      49.626  13.318  14.893  0.00  0.00    -0.427 OA
ENDBRANCH  21  22
BRANCH  12  13
ATOM     13  C   UNL     1      45.306  19.646  18.984  0.00  0.00    -0.073 A 
ATOM     14  C   UNL     1      45.917  20.900  18.923  0.00  0.00    +0.056 A 
ATOM     15  C   UNL     1      45.183  22.035  19.199  0.00  0.00    +0.014 A 
ATOM     16  C   UNL     1      43.846  21.933  19.537  0.00  0.00    +0.037 A 
ATOM     17  C   UNL     1      43.234  20.694  19.600  0.00  0.00    +0.009 A 
ATOM     18  C   UNL     1      43.954  19.550  19.320  0.00  0.00    +0.054 A 
ENDBRANCH  12  13
BRANCH   3   2
ATOM      1  C   UNL     1      51.742  18.007  16.080  0.00  0.00    +0.255 C 
ATOM      2  O   UNL     1      51.449  16.746  16.685  0.00  0.00    -0.294 OA
ENDBRANCH   3   2
BRANCH   7   8
ATOM      8  O   UNL     1      47.909  13.821  17.982  0.00  0.00    -0.313 OA
ATOM      9  C   UNL     1      48.285  13.138  19.178  0.00  0.00    +0.248 C 
ENDBRANCH   7   8
TORSDOF 4
ENDMDL
MODEL 8
REMARK VINA RESULT:      -5.3      5.213     10.068
REMARK  Name = ZINC95486328
REMARK  6 active torsions:
REMARK  status: ('A' for Active; 'I' for Inactive)
REMARK    1  A    between atoms: C1_1  and  O1_2
REMARK    2  A    between atoms: O1_2  and  C2_3
REMARK    3  A    between atoms: C8_10  and  C9_12
REMARK    4  A    between atoms: C15_18  and  O6_27
REMARK    5  A    between atoms: C16_19  and  C17_20
REMARK    6  A    between atoms: O6_27  and  C22_28
REMARK                            x       y       z     vdW  Elec       q    Type
REMARK                         _______ _______ _______ _____ _____    ______ ____
ROOT
ATOM      3  C   UNL     1      46.918  12.496  16.564  0.00  0.00    +0.223 A 
ATOM      4  C   UNL     1      47.444  12.106  15.344  0.00  0.00    -0.089 A 
ATOM      5  C   UNL     1      48.728  12.488  14.984  0.00  0.00    +0.209 A 
ATOM      6  C   UNL     1      49.493  13.273  15.864  0.00  0.00    -0.282 A 
ATOM      7  C   UNL     1      48.965  13.669  17.098  0.00  0.00    +0.242 A 
ATOM     10  C   UNL     1      50.853  13.664  15.457  0.00  0.00    +0.425 A 
ATOM     11  C   UNL     1      51.307  13.218  14.191  0.00  0.00    -0.143 A 
ATOM     12  C   UNL     1      50.487  12.462  13.414  0.00  0.00    +0.203 A 
ATOM     19  O   UNL     1      51.561  14.345  16.180  0.00  0.00    -0.453 OA
ATOM     20  O   UNL     1      49.250  12.113  13.796  0.00  0.00    -0.218 OA
ATOM     21  C   UNL     1      47.671  13.283  17.445  0.00  0.00    -0.093 A 
ENDROOT
BRANCH  21  22
ATOM     22  C   UNL     1      47.095  13.699  18.747  0.00  0.00    -0.274 C 
ATOM     23  C   UNL     1      47.265  13.083  19.943  0.00  0.00    +0.363 C 
ATOM     24  O   UNL     1      46.606  13.719  20.919  0.00  0.00    -0.219 OA
ATOM     25  C   UNL     1      45.949  14.807  20.445  0.00  0.00    -0.059 C 
ATOM     26  C   UNL     1      45.197  15.661  21.151  0.00  0.00    +0.199 C 
ATOM     27  C   UNL     1      46.233  14.866  18.994  0.00  0.00    +0.401 C 
ATOM     28  O   UNL     1      45.840  15.691  18.187  0.00  0.00    -0.427 OA
ENDBRANCH  21  22
BRANCH  12  13
ATOM     13  C   UNL     1      50.979  12.008  12.097  0.00  0.00    -0.073 A 
ATOM     14  C   UNL     1      51.419  10.694  11.928  0.00  0.00    +0.056 A 
ATOM     15  C   UNL     1      51.876  10.277  10.694  0.00  0.00    +0.014 A 
ATOM     16  C   UNL     1      51.899  11.156   9.628  0.00  0.00    +0.037 A 
ATOM     17  C   UNL     1      51.463  12.461   9.788  0.00  0.00    +0.009 A 
ATOM     18  C   UNL     1      50.999  12.890  11.015  0.00  0.00    +0.054 A 
ENDBRANCH  12  13
BRANCH   3   2
ATOM      1  C   UNL     1      45.061  11.078  16.130  0.00  0.00    +0.255 C 
ATOM      2  O   UNL     1      45.660  12.117  16.907  0.00  0.00    -0.294 OA
ENDBRANCH   3   2
BRANCH   7   8
ATOM      8  O   UNL     1      49.703  14.427  17.948  0.00  0.00    -0.313 OA
ATOM      9  C   UNL     1      49.482  15.838  17.917  0.00  0.00    +0.248 C 
ENDBRANCH   7   8
TORSDOF 4
ENDMDL
MODEL 9
REMARK VINA RESULT:      -5.1      2.701      7.041
REMARK  Name = ZINC95486328
REMARK  6 active torsions:
REMARK  status: ('A' for Active; 'I' for Inactive)
REMARK    1  A    between atoms: C1_1  and  O1_2
REMARK    2  A    between atoms: O1_2  and  C2_3
REMARK    3  A    between atoms: C8_10  and  C9_12
REMARK    4  A    between atoms: C15_18  and  O6_27
REMARK    5  A    between atoms: C16_19  and  C17_20
REMARK    6  A    between atoms: O6_27  and  C22_28
REMARK                            x       y       z     vdW  Elec       q    Type
REMARK                         _______ _______ _______ _____ _____    ______ ____
ROOT
ATOM      3  C   UNL     1      48.395  18.570  18.753  0.00  0.00    +0.223 A 
ATOM      4  C   UNL     1      48.452  17.412  17.996  0.00  0.00    -0.089 A 
ATOM      5  C   UNL     1      47.556  16.380  18.234  0.00  0.00    +0.209 A 
ATOM      6  C   UNL     1      46.591  16.516  19.247  0.00  0.00    -0.282 A 
ATOM      7  C   UNL     1      46.530  17.685  20.013  0.00  0.00    +0.242 A 
ATOM     10  C   UNL     1      45.652  15.404  19.478  0.00  0.00    +0.425 A 
ATOM     11  C   UNL     1      45.784  14.259  18.656  0.00  0.00    -0.143 A 
ATOM     12  C   UNL     1      46.754  14.227  17.702  0.00  0.00    +0.203 A 
ATOM     19  O   UNL     1      44.794  15.468  20.343  0.00  0.00    -0.453 OA
ATOM     20  O   UNL     1      47.603  15.246  17.502  0.00  0.00    -0.218 OA
ATOM     21  C   UNL     1      47.440  18.712  19.768  0.00  0.00    -0.093 A 
ENDROOT
BRANCH  21  22
ATOM     22  C   UNL     1      47.393  19.956  20.575  0.00  0.00    -0.274 C 
ATOM     23  C   UNL     1      47.994  20.169  21.772  0.00  0.00    +0.363 C 
ATOM     24  O   UNL     1      47.750  21.403  22.230  0.00  0.00    -0.219 OA
ATOM     25  C   UNL     1      46.968  22.103  21.371  0.00  0.00    -0.059 C 
ATOM     26  C   UNL     1      46.538  23.362  21.522  0.00  0.00    +0.199 C 
ATOM     27  C   UNL     1      46.690  21.202  20.231  0.00  0.00    +0.401 C 
ATOM     28  O   UNL     1      46.028  21.437  19.234  0.00  0.00    -0.427 OA
ENDBRANCH  21  22
BRANCH  12  13
ATOM     13  C   UNL     1      46.876  13.023  16.856  0.00  0.00    -0.073 A 
ATOM     14  C   UNL     1      47.566  13.085  15.643  0.00  0.00    +0.056 A 
ATOM     15  C   UNL     1      47.677  11.956  14.859  0.00  0.00    +0.014 A 
ATOM     16  C   UNL     1      47.106  10.765  15.269  0.00  0.00    +0.037 A 
ATOM     17  C   UNL     1      46.420  10.696  16.470  0.00  0.00    +0.009 A 
ATOM     18  C   UNL     1      46.306  11.816  17.268  0.00  0.00    +0.054 A 
ENDBRANCH  12  13
BRANCH   3   2
ATOM      1  C   UNL     1      50.538  19.211  17.949  0.00  0.00    +0.255 C 
ATOM      2  O   UNL     1      49.276  19.575  18.512  0.00  0.00    -0.294 OA
ENDBRANCH   3   2
BRANCH   7   8
ATOM      8  O   UNL     1      45.599  17.817  20.992  0.00  0.00    -0.313 OA
ATOM      9  C   UNL     1      44.397  18.511  20.655  0.00  0.00    +0.248 C 
ENDBRANCH   7   8
TORSDOF 4
ENDMDL
