MODEL 1
REMARK VINA RESULT:      -7.1      0.000      0.000
REMARK  Name = ZINC33833639
REMARK  10 active torsions:
REMARK  status: ('A' for Active; 'I' for Inactive)
REMARK    1  A    between atoms: C1_1  and  C2_2
REMARK    2  A    between atoms: C5_5  and  O3_37
REMARK    3  A    between atoms: C6_7  and  C29_35
REMARK    4  A    between atoms: C6_7  and  C30_36
REMARK    5  A    between atoms: C10_12  and  C28_34
REMARK    6  A    between atoms: C15_18  and  C27_33
REMARK    7  A    between atoms: C18_22  and  C26_31
REMARK    8  A    between atoms: C21_26  and  C24_29
REMARK    9  A    between atoms: C21_26  and  C25_30
REMARK   10  A    between atoms: C26_31  and  O2_32
REMARK                            x       y       z     vdW  Elec       q    Type
REMARK                         _______ _______ _______ _____ _____    ______ ____
ROOT
ATOM      1  C   UNL     1      45.188  21.251  20.696  0.00  0.00    +0.028 C 
ATOM      2  C   UNL     1      45.119  19.926  19.948  0.00  0.00    -0.037 C 
ATOM      3  C   UNL     1      44.124  20.111  18.785  0.00  0.00    +0.019 C 
ATOM      4  C   UNL     1      42.746  20.446  19.352  0.00  0.00    -0.020 C 
ATOM      5  C   UNL     1      42.225  19.299  20.206  0.00  0.00    +0.165 C 
ATOM      8  C   UNL     1      43.202  18.891  21.310  0.00  0.00    -0.039 C 
ATOM      9  C   UNL     1      43.080  19.833  22.505  0.00  0.00    +0.035 C 
ATOM     10  C   UNL     1      42.745  17.489  21.790  0.00  0.00    +0.017 C 
ATOM     11  C   UNL     1      46.488  19.568  19.343  0.00  0.00    +0.015 C 
ATOM     12  C   UNL     1      46.210  18.451  18.321  0.00  0.00    +0.059 C 
ATOM     13  C   UNL     1      47.467  17.840  17.801  0.00  0.00    -0.037 C 
ATOM     14  C   UNL     1      48.617  17.936  18.391  0.00  0.00    -0.115 C 
ATOM     15  C   UNL     1      48.815  18.684  19.675  0.00  0.00    +0.004 C 
ATOM     16  C   UNL     1      49.597  17.813  20.660  0.00  0.00    +0.034 C 
ATOM     17  C   UNL     1      49.694  19.898  19.358  0.00  0.00    +0.043 C 
ATOM     18  C   UNL     1      50.453  19.674  18.070  0.00  0.00    +0.362 C 
ATOM     19  C   UNL     1      50.947  18.308  17.645  0.00  0.00    -0.073 C 
ATOM     23  C   UNL     1      52.137  17.913  18.510  0.00  0.00    +0.048 C 
ATOM     24  C   UNL     1      52.597  16.504  18.161  0.00  0.00    +0.026 C 
ATOM     25  C   UNL     1      51.521  15.471  18.438  0.00  0.00    -0.054 C 
ATOM     26  C   UNL     1      51.802  14.248  17.542  0.00  0.00    +0.016 C 
ATOM     27  C   UNL     1      51.646  15.006  19.899  0.00  0.00    +0.021 C 
ATOM     28  C   UNL     1      50.106  15.916  18.182  0.00  0.00    +0.035 C 
ATOM     29  O   UNL     1      50.671  20.632  17.345  0.00  0.00    -0.443 OA
ATOM     30  C   UNL     1      49.821  17.302  17.727  0.00  0.00    +0.033 C 
ATOM     31  C   UNL     1      47.511  19.092  20.361  0.00  0.00    -0.025 C 
ATOM     32  C   UNL     1      47.915  20.208  21.345  0.00  0.00    +0.022 C 
ATOM     33  C   UNL     1      46.932  17.952  21.199  0.00  0.00    +0.024 C 
ATOM     34  C   UNL     1      45.628  18.413  21.876  0.00  0.00    +0.016 C 
ATOM     35  C   UNL     1      44.619  18.764  20.791  0.00  0.00    +0.002 C 
ENDROOT
BRANCH   5   6
ATOM      6  O   UNL     1      40.981  19.682  20.805  0.00  0.00    -0.565 OA
ATOM      7  H   UNL     1      40.781  20.626  20.727  0.00  0.00    +0.374 HD
ENDBRANCH   5   6
BRANCH  19  20
ATOM     20  C   UNL     1      51.405  18.410  16.174  0.00  0.00    +0.188 C 
BRANCH  20  21
ATOM     21  O   UNL     1      52.594  19.199  16.099  0.00  0.00    -0.556 OA
ATOM     22  H   UNL     1      52.867  19.414  15.197  0.00  0.00    +0.377 HD
ENDBRANCH  20  21
ENDBRANCH  19  20
TORSDOF 3
ENDMDL
MODEL 2
REMARK VINA RESULT:      -6.9      2.965      3.899
REMARK  Name = ZINC33833639
REMARK  10 active torsions:
REMARK  status: ('A' for Active; 'I' for Inactive)
REMARK    1  A    between atoms: C1_1  and  C2_2
REMARK    2  A    between atoms: C5_5  and  O3_37
REMARK    3  A    between atoms: C6_7  and  C29_35
REMARK    4  A    between atoms: C6_7  and  C30_36
REMARK    5  A    between atoms: C10_12  and  C28_34
REMARK    6  A    between atoms: C15_18  and  C27_33
REMARK    7  A    between atoms: C18_22  and  C26_31
REMARK    8  A    between atoms: C21_26  and  C24_29
REMARK    9  A    between atoms: C21_26  and  C25_30
REMARK   10  A    between atoms: C26_31  and  O2_32
REMARK                            x       y       z     vdW  Elec       q    Type
REMARK                         _______ _______ _______ _____ _____    ______ ____
ROOT
ATOM      1  C   UNL     1      46.693  19.469  21.089  0.00  0.00    +0.028 C 
ATOM      2  C   UNL     1      46.096  19.076  19.744  0.00  0.00    -0.037 C 
ATOM      3  C   UNL     1      46.209  20.305  18.820  0.00  0.00    +0.019 C 
ATOM      4  C   UNL     1      45.403  21.457  19.416  0.00  0.00    -0.020 C 
ATOM      5  C   UNL     1      43.927  21.093  19.496  0.00  0.00    +0.165 C 
ATOM      8  C   UNL     1      43.679  19.785  20.250  0.00  0.00    -0.039 C 
ATOM      9  C   UNL     1      43.698  20.026  21.757  0.00  0.00    +0.035 C 
ATOM     10  C   UNL     1      42.239  19.344  19.880  0.00  0.00    +0.017 C 
ATOM     11  C   UNL     1      46.899  17.930  19.103  0.00  0.00    +0.015 C 
ATOM     12  C   UNL     1      46.455  17.886  17.631  0.00  0.00    +0.059 C 
ATOM     13  C   UNL     1      46.982  16.686  16.920  0.00  0.00    -0.037 C 
ATOM     14  C   UNL     1      47.416  15.622  17.519  0.00  0.00    -0.115 C 
ATOM     15  C   UNL     1      47.440  15.480  19.012  0.00  0.00    +0.004 C 
ATOM     16  C   UNL     1      46.821  14.138  19.408  0.00  0.00    +0.034 C 
ATOM     17  C   UNL     1      48.912  15.434  19.436  0.00  0.00    +0.043 C 
ATOM     18  C   UNL     1      49.784  15.044  18.266  0.00  0.00    +0.362 C 
ATOM     19  C   UNL     1      49.323  14.079  17.195  0.00  0.00    -0.073 C 
ATOM     23  C   UNL     1      49.315  12.665  17.764  0.00  0.00    +0.048 C 
ATOM     24  C   UNL     1      48.769  11.686  16.733  0.00  0.00    +0.026 C 
ATOM     25  C   UNL     1      47.330  11.994  16.363  0.00  0.00    -0.054 C 
ATOM     26  C   UNL     1      47.069  11.401  14.964  0.00  0.00    +0.016 C 
ATOM     27  C   UNL     1      46.400  11.267  17.349  0.00  0.00    +0.021 C 
ATOM     28  C   UNL     1      46.963  13.453  16.324  0.00  0.00    +0.035 C 
ATOM     29  O   UNL     1      50.900  15.531  18.180  0.00  0.00    -0.443 OA
ATOM     30  C   UNL     1      47.965  14.493  16.673  0.00  0.00    +0.033 C 
ATOM     31  C   UNL     1      46.670  16.574  19.750  0.00  0.00    -0.025 C 
ATOM     32  C   UNL     1      47.201  16.523  21.197  0.00  0.00    +0.022 C 
ATOM     33  C   UNL     1      45.174  16.266  19.818  0.00  0.00    +0.024 C 
ATOM     34  C   UNL     1      44.444  17.390  20.578  0.00  0.00    +0.016 C 
ATOM     35  C   UNL     1      44.627  18.690  19.808  0.00  0.00    +0.002 C 
ENDROOT
BRANCH   5   6
ATOM      6  O   UNL     1      43.213  22.149  20.151  0.00  0.00    -0.565 OA
ATOM      7  H   UNL     1      43.027  21.978  21.085  0.00  0.00    +0.374 HD
ENDBRANCH   5   6
BRANCH  19  20
ATOM     20  C   UNL     1      50.335  14.146  16.031  0.00  0.00    +0.188 C 
BRANCH  20  21
ATOM     21  O   UNL     1      51.555  13.514  16.423  0.00  0.00    -0.556 OA
ATOM     22  H   UNL     1      51.866  13.770  17.301  0.00  0.00    +0.377 HD
ENDBRANCH  20  21
ENDBRANCH  19  20
TORSDOF 3
ENDMDL
MODEL 3
REMARK VINA RESULT:      -6.6      2.792      7.488
REMARK  Name = ZINC33833639
REMARK  10 active torsions:
REMARK  status: ('A' for Active; 'I' for Inactive)
REMARK    1  A    between atoms: C1_1  and  C2_2
REMARK    2  A    between atoms: C5_5  and  O3_37
REMARK    3  A    between atoms: C6_7  and  C29_35
REMARK    4  A    between atoms: C6_7  and  C30_36
REMARK    5  A    between atoms: C10_12  and  C28_34
REMARK    6  A    between atoms: C15_18  and  C27_33
REMARK    7  A    between atoms: C18_22  and  C26_31
REMARK    8  A    between atoms: C21_26  and  C24_29
REMARK    9  A    between atoms: C21_26  and  C25_30
REMARK   10  A    between atoms: C26_31  and  O2_32
REMARK                            x       y       z     vdW  Elec       q    Type
REMARK                         _______ _______ _______ _____ _____    ______ ____
ROOT
ATOM      1  C   UNL     1      46.218  13.853  18.656  0.00  0.00    +0.028 C 
ATOM      2  C   UNL     1      46.805  15.122  18.053  0.00  0.00    -0.037 C 
ATOM      3  C   UNL     1      46.589  15.045  16.528  0.00  0.00    +0.019 C 
ATOM      4  C   UNL     1      47.331  13.830  15.977  0.00  0.00    -0.020 C 
ATOM      5  C   UNL     1      48.829  13.967  16.208  0.00  0.00    +0.165 C 
ATOM      8  C   UNL     1      49.182  14.222  17.673  0.00  0.00    -0.039 C 
ATOM      9  C   UNL     1      49.184  12.912  18.458  0.00  0.00    +0.035 C 
ATOM     10  C   UNL     1      50.639  14.754  17.677  0.00  0.00    +0.017 C 
ATOM     11  C   UNL     1      46.065  16.368  18.571  0.00  0.00    +0.015 C 
ATOM     12  C   UNL     1      46.474  17.514  17.630  0.00  0.00    +0.059 C 
ATOM     13  C   UNL     1      46.011  18.842  18.127  0.00  0.00    -0.037 C 
ATOM     14  C   UNL     1      45.664  19.075  19.353  0.00  0.00    -0.115 C 
ATOM     15  C   UNL     1      45.686  18.023  20.421  0.00  0.00    +0.004 C 
ATOM     16  C   UNL     1      46.403  18.566  21.659  0.00  0.00    +0.034 C 
ATOM     17  C   UNL     1      44.231  17.761  20.826  0.00  0.00    +0.043 C 
ATOM     18  C   UNL     1      43.359  18.930  20.431  0.00  0.00    +0.362 C 
ATOM     19  C   UNL     1      43.856  20.360  20.452  0.00  0.00    -0.073 C 
ATOM     23  C   UNL     1      43.972  20.830  21.896  0.00  0.00    +0.048 C 
ATOM     24  C   UNL     1      44.556  22.235  21.947  0.00  0.00    +0.026 C 
ATOM     25  C   UNL     1      45.962  22.287  21.378  0.00  0.00    -0.054 C 
ATOM     26  C   UNL     1      46.227  23.734  20.915  0.00  0.00    +0.016 C 
ATOM     27  C   UNL     1      46.963  21.976  22.504  0.00  0.00    +0.021 C 
ATOM     28  C   UNL     1      46.229  21.373  20.214  0.00  0.00    +0.035 C 
ATOM     29  O   UNL     1      42.210  18.710  20.079  0.00  0.00    -0.443 OA
ATOM     30  C   UNL     1      45.170  20.461  19.710  0.00  0.00    +0.033 C 
ATOM     31  C   UNL     1      46.399  16.736  20.007  0.00  0.00    -0.025 C 
ATOM     32  C   UNL     1      45.909  15.673  21.010  0.00  0.00    +0.022 C 
ATOM     33  C   UNL     1      47.914  16.847  20.186  0.00  0.00    +0.024 C 
ATOM     34  C   UNL     1      48.586  15.526  19.766  0.00  0.00    +0.016 C 
ATOM     35  C   UNL     1      48.298  15.286  18.290  0.00  0.00    +0.002 C 
ENDROOT
BRANCH   5   6
ATOM      6  O   UNL     1      49.487  12.770  15.773  0.00  0.00    -0.565 OA
ATOM      7  H   UNL     1      49.236  12.485  14.883  0.00  0.00    +0.374 HD
ENDBRANCH   5   6
BRANCH  19  20
ATOM     20  C   UNL     1      42.813  21.232  19.721  0.00  0.00    +0.188 C 
BRANCH  20  21
ATOM     21  O   UNL     1      42.655  20.764  18.381  0.00  0.00    -0.556 OA
ATOM     22  H   UNL     1      43.478  20.732  17.876  0.00  0.00    +0.377 HD
ENDBRANCH  20  21
ENDBRANCH  19  20
TORSDOF 3
ENDMDL
MODEL 4
REMARK VINA RESULT:      -6.5      3.191      8.150
REMARK  Name = ZINC33833639
REMARK  10 active torsions:
REMARK  status: ('A' for Active; 'I' for Inactive)
REMARK    1  A    between atoms: C1_1  and  C2_2
REMARK    2  A    between atoms: C5_5  and  O3_37
REMARK    3  A    between atoms: C6_7  and  C29_35
REMARK    4  A    between atoms: C6_7  and  C30_36
REMARK    5  A    between atoms: C10_12  and  C28_34
REMARK    6  A    between atoms: C15_18  and  C27_33
REMARK    7  A    between atoms: C18_22  and  C26_31
REMARK    8  A    between atoms: C21_26  and  C24_29
REMARK    9  A    between atoms: C21_26  and  C25_30
REMARK   10  A    between atoms: C26_31  and  O2_32
REMARK                            x       y       z     vdW  Elec       q    Type
REMARK                         _______ _______ _______ _____ _____    ______ ____
ROOT
ATOM      1  C   UNL     1      48.934  11.835  17.813  0.00  0.00    +0.028 C 
ATOM      2  C   UNL     1      48.500  12.945  16.866  0.00  0.00    -0.037 C 
ATOM      3  C   UNL     1      47.544  12.313  15.833  0.00  0.00    +0.019 C 
ATOM      4  C   UNL     1      48.292  11.239  15.048  0.00  0.00    -0.020 C 
ATOM      5  C   UNL     1      49.448  11.851  14.269  0.00  0.00    +0.165 C 
ATOM      8  C   UNL     1      50.396  12.661  15.154  0.00  0.00    -0.039 C 
ATOM      9  C   UNL     1      51.375  11.737  15.874  0.00  0.00    +0.035 C 
ATOM     10  C   UNL     1      51.232  13.544  14.192  0.00  0.00    +0.017 C 
ATOM     11  C   UNL     1      47.722  14.036  17.621  0.00  0.00    +0.015 C 
ATOM     12  C   UNL     1      47.025  14.875  16.535  0.00  0.00    +0.059 C 
ATOM     13  C   UNL     1      46.401  16.110  17.093  0.00  0.00    -0.037 C 
ATOM     14  C   UNL     1      46.720  16.629  18.237  0.00  0.00    -0.115 C 
ATOM     15  C   UNL     1      47.760  16.036  19.140  0.00  0.00    +0.004 C 
ATOM     16  C   UNL     1      48.727  17.131  19.595  0.00  0.00    +0.034 C 
ATOM     17  C   UNL     1      47.035  15.532  20.392  0.00  0.00    +0.043 C 
ATOM     18  C   UNL     1      45.696  16.217  20.534  0.00  0.00    +0.362 C 
ATOM     19  C   UNL     1      45.467  17.653  20.110  0.00  0.00    -0.073 C 
ATOM     23  C   UNL     1      46.142  18.585  21.109  0.00  0.00    +0.048 C 
ATOM     24  C   UNL     1      46.003  20.031  20.655  0.00  0.00    +0.026 C 
ATOM     25  C   UNL     1      46.692  20.279  19.326  0.00  0.00    -0.054 C 
ATOM     26  C   UNL     1      46.025  21.506  18.673  0.00  0.00    +0.016 C 
ATOM     27  C   UNL     1      48.162  20.644  19.591  0.00  0.00    +0.021 C 
ATOM     28  C   UNL     1      46.635  19.143  18.340  0.00  0.00    +0.035 C 
ATOM     29  O   UNL     1      44.762  15.587  21.006  0.00  0.00    -0.443 OA
ATOM     30  C   UNL     1      45.974  17.862  18.700  0.00  0.00    +0.033 C 
ATOM     31  C   UNL     1      48.592  14.934  18.485  0.00  0.00    -0.025 C 
ATOM     32  C   UNL     1      49.230  14.168  19.662  0.00  0.00    +0.022 C 
ATOM     33  C   UNL     1      49.743  15.510  17.658  0.00  0.00    +0.024 C 
ATOM     34  C   UNL     1      50.556  14.363  17.028  0.00  0.00    +0.016 C 
ATOM     35  C   UNL     1      49.643  13.582  16.093  0.00  0.00    +0.002 C 
ENDROOT
BRANCH   5   6
ATOM      6  O   UNL     1      50.191  10.808  13.626  0.00  0.00    -0.565 OA
ATOM      7  H   UNL     1      50.556  10.152  14.236  0.00  0.00    +0.374 HD
ENDBRANCH   5   6
BRANCH  19  20
ATOM     20  C   UNL     1      43.946  17.913  20.126  0.00  0.00    +0.188 C 
BRANCH  20  21
ATOM     21  O   UNL     1      43.479  17.921  21.476  0.00  0.00    -0.556 OA
ATOM     22  H   UNL     1      42.536  17.727  21.567  0.00  0.00    +0.377 HD
ENDBRANCH  20  21
ENDBRANCH  19  20
TORSDOF 3
ENDMDL
MODEL 5
REMARK VINA RESULT:      -6.4      1.652      2.610
REMARK  Name = ZINC33833639
REMARK  10 active torsions:
REMARK  status: ('A' for Active; 'I' for Inactive)
REMARK    1  A    between atoms: C1_1  and  C2_2
REMARK    2  A    between atoms: C5_5  and  O3_37
REMARK    3  A    between atoms: C6_7  and  C29_35
REMARK    4  A    between atoms: C6_7  and  C30_36
REMARK    5  A    between atoms: C10_12  and  C28_34
REMARK    6  A    between atoms: C15_18  and  C27_33
REMARK    7  A    between atoms: C18_22  and  C26_31
REMARK    8  A    between atoms: C21_26  and  C24_29
REMARK    9  A    between atoms: C21_26  and  C25_30
REMARK   10  A    between atoms: C26_31  and  O2_32
REMARK                            x       y       z     vdW  Elec       q    Type
REMARK                         _______ _______ _______ _____ _____    ______ ____
ROOT
ATOM      1  C   UNL     1      44.046  20.824  21.686  0.00  0.00    +0.028 C 
ATOM      2  C   UNL     1      44.527  20.892  20.243  0.00  0.00    -0.037 C 
ATOM      3  C   UNL     1      44.360  22.352  19.774  0.00  0.00    +0.019 C 
ATOM      4  C   UNL     1      42.882  22.732  19.836  0.00  0.00    -0.020 C 
ATOM      5  C   UNL     1      42.066  21.864  18.888  0.00  0.00    +0.165 C 
ATOM      8  C   UNL     1      42.271  20.368  19.131  0.00  0.00    -0.039 C 
ATOM      9  C   UNL     1      41.411  19.894  20.300  0.00  0.00    +0.035 C 
ATOM     10  C   UNL     1      41.741  19.651  17.861  0.00  0.00    +0.017 C 
ATOM     11  C   UNL     1      46.021  20.536  20.147  0.00  0.00    +0.015 C 
ATOM     12  C   UNL     1      46.469  21.001  18.749  0.00  0.00    +0.059 C 
ATOM     13  C   UNL     1      47.844  20.531  18.415  0.00  0.00    -0.037 C 
ATOM     14  C   UNL     1      48.441  19.550  19.016  0.00  0.00    -0.115 C 
ATOM     15  C   UNL     1      47.809  18.772  20.131  0.00  0.00    +0.004 C 
ATOM     16  C   UNL     1      47.960  17.274  19.860  0.00  0.00    +0.034 C 
ATOM     17  C   UNL     1      48.607  19.078  21.403  0.00  0.00    +0.043 C 
ATOM     18  C   UNL     1      49.979  19.602  21.048  0.00  0.00    +0.362 C 
ATOM     19  C   UNL     1      50.740  19.127  19.828  0.00  0.00    -0.073 C 
ATOM     23  C   UNL     1      51.254  17.714  20.076  0.00  0.00    +0.048 C 
ATOM     24  C   UNL     1      51.947  17.180  18.830  0.00  0.00    +0.026 C 
ATOM     25  C   UNL     1      50.995  17.076  17.652  0.00  0.00    -0.054 C 
ATOM     26  C   UNL     1      51.838  17.126  16.362  0.00  0.00    +0.016 C 
ATOM     27  C   UNL     1      50.305  15.702  17.694  0.00  0.00    +0.021 C 
ATOM     28  C   UNL     1      49.947  18.152  17.562  0.00  0.00    +0.035 C 
ATOM     29  O   UNL     1      50.490  20.443  21.771  0.00  0.00    -0.443 OA
ATOM     30  C   UNL     1      49.857  19.207  18.603  0.00  0.00    +0.033 C 
ATOM     31  C   UNL     1      46.318  19.055  20.316  0.00  0.00    -0.025 C 
ATOM     32  C   UNL     1      45.994  18.555  21.738  0.00  0.00    +0.022 C 
ATOM     33  C   UNL     1      45.463  18.230  19.352  0.00  0.00    +0.024 C 
ATOM     34  C   UNL     1      43.972  18.542  19.583  0.00  0.00    +0.016 C 
ATOM     35  C   UNL     1      43.736  20.016  19.285  0.00  0.00    +0.002 C 
ENDROOT
BRANCH   5   6
ATOM      6  O   UNL     1      40.675  22.173  19.043  0.00  0.00    -0.565 OA
ATOM      7  H   UNL     1      40.187  22.217  18.208  0.00  0.00    +0.374 HD
ENDBRANCH   5   6
BRANCH  19  20
ATOM     20  C   UNL     1      51.944  20.072  19.626  0.00  0.00    +0.188 C 
BRANCH  20  21
ATOM     21  O   UNL     1      51.488  21.316  19.090  0.00  0.00    -0.556 OA
ATOM     22  H   UNL     1      51.364  22.008  19.752  0.00  0.00    +0.377 HD
ENDBRANCH  20  21
ENDBRANCH  19  20
TORSDOF 3
ENDMDL
MODEL 6
REMARK VINA RESULT:      -6.3      2.846      7.802
REMARK  Name = ZINC33833639
REMARK  10 active torsions:
REMARK  status: ('A' for Active; 'I' for Inactive)
REMARK    1  A    between atoms: C1_1  and  C2_2
REMARK    2  A    between atoms: C5_5  and  O3_37
REMARK    3  A    between atoms: C6_7  and  C29_35
REMARK    4  A    between atoms: C6_7  and  C30_36
REMARK    5  A    between atoms: C10_12  and  C28_34
REMARK    6  A    between atoms: C15_18  and  C27_33
REMARK    7  A    between atoms: C18_22  and  C26_31
REMARK    8  A    between atoms: C21_26  and  C24_29
REMARK    9  A    between atoms: C21_26  and  C25_30
REMARK   10  A    between atoms: C26_31  and  O2_32
REMARK                            x       y       z     vdW  Elec       q    Type
REMARK                         _______ _______ _______ _____ _____    ______ ____
ROOT
ATOM      1  C   UNL     1      47.639  13.084  19.403  0.00  0.00    +0.028 C 
ATOM      2  C   UNL     1      47.492  14.277  18.469  0.00  0.00    -0.037 C 
ATOM      3  C   UNL     1      46.753  13.781  17.210  0.00  0.00    +0.019 C 
ATOM      4  C   UNL     1      47.591  12.702  16.528  0.00  0.00    -0.020 C 
ATOM      5  C   UNL     1      48.925  13.272  16.066  0.00  0.00    +0.165 C 
ATOM      8  C   UNL     1      49.699  13.955  17.193  0.00  0.00    -0.039 C 
ATOM      9  C   UNL     1      50.438  12.919  18.038  0.00  0.00    +0.035 C 
ATOM     10  C   UNL     1      50.779  14.829  16.503  0.00  0.00    +0.017 C 
ATOM     11  C   UNL     1      46.632  15.377  19.116  0.00  0.00    +0.015 C 
ATOM     12  C   UNL     1      46.244  16.328  17.970  0.00  0.00    +0.059 C 
ATOM     13  C   UNL     1      45.588  17.571  18.469  0.00  0.00    -0.037 C 
ATOM     14  C   UNL     1      45.676  17.996  19.690  0.00  0.00    -0.115 C 
ATOM     15  C   UNL     1      46.452  17.275  20.751  0.00  0.00    +0.004 C 
ATOM     16  C   UNL     1      47.358  18.266  21.484  0.00  0.00    +0.034 C 
ATOM     17  C   UNL     1      45.439  16.754  21.775  0.00  0.00    +0.043 C 
ATOM     18  C   UNL     1      44.145  17.527  21.674  0.00  0.00    +0.362 C 
ATOM     19  C   UNL     1      44.103  18.998  21.317  0.00  0.00    -0.073 C 
ATOM     23  C   UNL     1      44.593  19.816  22.505  0.00  0.00    +0.048 C 
ATOM     24  C   UNL     1      44.645  21.294  22.140  0.00  0.00    +0.026 C 
ATOM     25  C   UNL     1      45.624  21.567  21.014  0.00  0.00    -0.054 C 
ATOM     26  C   UNL     1      45.193  22.877  20.325  0.00  0.00    +0.016 C 
ATOM     27  C   UNL     1      47.019  21.805  21.618  0.00  0.00    +0.021 C 
ATOM     28  C   UNL     1      45.720  20.499  19.958  0.00  0.00    +0.035 C 
ATOM     29  O   UNL     1      43.095  16.941  21.883  0.00  0.00    -0.443 OA
ATOM     30  C   UNL     1      44.921  19.252  20.070  0.00  0.00    +0.033 C 
ATOM     31  C   UNL     1      47.342  16.155  20.212  0.00  0.00    -0.025 C 
ATOM     32  C   UNL     1      47.656  15.275  21.439  0.00  0.00    +0.022 C 
ATOM     33  C   UNL     1      48.679  16.691  19.700  0.00  0.00    +0.024 C 
ATOM     34  C   UNL     1      49.542  15.527  19.178  0.00  0.00    +0.016 C 
ATOM     35  C   UNL     1      48.814  14.872  18.012  0.00  0.00    +0.002 C 
ENDROOT
BRANCH   5   6
ATOM      6  O   UNL     1      49.728  12.216  15.523  0.00  0.00    -0.565 OA
ATOM      7  H   UNL     1      50.342  12.504  14.833  0.00  0.00    +0.374 HD
ENDBRANCH   5   6
BRANCH  19  20
ATOM     20  C   UNL     1      42.633  19.369  21.022  0.00  0.00    +0.188 C 
BRANCH  20  21
ATOM     21  O   UNL     1      41.879  19.329  22.235  0.00  0.00    -0.556 OA
ATOM     22  H   UNL     1      42.274  18.780  22.926  0.00  0.00    +0.377 HD
ENDBRANCH  20  21
ENDBRANCH  19  20
TORSDOF 3
ENDMDL
MODEL 7
REMARK VINA RESULT:      -6.1      3.734      7.106
REMARK  Name = ZINC33833639
REMARK  10 active torsions:
REMARK  status: ('A' for Active; 'I' for Inactive)
REMARK    1  A    between atoms: C1_1  and  C2_2
REMARK    2  A    between atoms: C5_5  and  O3_37
REMARK    3  A    between atoms: C6_7  and  C29_35
REMARK    4  A    between atoms: C6_7  and  C30_36
REMARK    5  A    between atoms: C10_12  and  C28_34
REMARK    6  A    between atoms: C15_18  and  C27_33
REMARK    7  A    between atoms: C18_22  and  C26_31
REMARK    8  A    between atoms: C21_26  and  C24_29
REMARK    9  A    between atoms: C21_26  and  C25_30
REMARK   10  A    between atoms: C26_31  and  O2_32
REMARK                            x       y       z     vdW  Elec       q    Type
REMARK                         _______ _______ _______ _____ _____    ______ ____
ROOT
ATOM      1  C   UNL     1      49.394  18.831  20.260  0.00  0.00    +0.028 C 
ATOM      2  C   UNL     1      50.394  18.051  19.416  0.00  0.00    -0.037 C 
ATOM      3  C   UNL     1      51.730  18.042  20.186  0.00  0.00    +0.019 C 
ATOM      4  C   UNL     1      52.220  19.477  20.357  0.00  0.00    -0.020 C 
ATOM      5  C   UNL     1      52.491  20.116  19.002  0.00  0.00    +0.165 C 
ATOM      8  C   UNL     1      51.288  20.043  18.061  0.00  0.00    -0.039 C 
ATOM      9  C   UNL     1      50.291  21.154  18.382  0.00  0.00    +0.035 C 
ATOM     10  C   UNL     1      51.838  20.326  16.639  0.00  0.00    +0.017 C 
ATOM     11  C   UNL     1      49.941  16.590  19.242  0.00  0.00    +0.015 C 
ATOM     12  C   UNL     1      51.176  15.833  18.723  0.00  0.00    +0.059 C 
ATOM     13  C   UNL     1      50.844  14.443  18.295  0.00  0.00    -0.037 C 
ATOM     14  C   UNL     1      49.645  14.038  18.016  0.00  0.00    -0.115 C 
ATOM     15  C   UNL     1      48.444  14.931  18.097  0.00  0.00    +0.004 C 
ATOM     16  C   UNL     1      47.622  14.801  16.813  0.00  0.00    +0.034 C 
ATOM     17  C   UNL     1      47.569  14.407  19.241  0.00  0.00    +0.043 C 
ATOM     18  C   UNL     1      47.909  12.967  19.544  0.00  0.00    +0.362 C 
ATOM     19  C   UNL     1      48.335  11.989  18.470  0.00  0.00    -0.073 C 
ATOM     23  C   UNL     1      47.123  11.611  17.627  0.00  0.00    +0.048 C 
ATOM     24  C   UNL     1      47.542  10.696  16.484  0.00  0.00    +0.026 C 
ATOM     25  C   UNL     1      48.510  11.379  15.536  0.00  0.00    -0.054 C 
ATOM     26  C   UNL     1      49.318  10.280  14.817  0.00  0.00    +0.016 C 
ATOM     27  C   UNL     1      47.705  12.131  14.462  0.00  0.00    +0.021 C 
ATOM     28  C   UNL     1      49.488  12.329  16.174  0.00  0.00    +0.035 C 
ATOM     29  O   UNL     1      47.842  12.580  20.700  0.00  0.00    -0.443 OA
ATOM     30  C   UNL     1      49.447  12.586  17.636  0.00  0.00    +0.033 C 
ATOM     31  C   UNL     1      48.783  16.411  18.274  0.00  0.00    -0.025 C 
ATOM     32  C   UNL     1      47.483  17.054  18.797  0.00  0.00    +0.022 C 
ATOM     33  C   UNL     1      49.102  17.082  16.937  0.00  0.00    +0.024 C 
ATOM     34  C   UNL     1      49.427  18.570  17.166  0.00  0.00    +0.016 C 
ATOM     35  C   UNL     1      50.662  18.663  18.051  0.00  0.00    +0.002 C 
ENDROOT
BRANCH   5   6
ATOM      6  O   UNL     1      52.851  21.491  19.190  0.00  0.00    -0.565 OA
ATOM      7  H   UNL     1      53.805  21.644  19.238  0.00  0.00    +0.374 HD
ENDBRANCH   5   6
BRANCH  19  20
ATOM     20  C   UNL     1      48.875  10.723  19.171  0.00  0.00    +0.188 C 
BRANCH  20  21
ATOM     21  O   UNL     1      50.155  11.004  19.740  0.00  0.00    -0.556 OA
ATOM     22  H   UNL     1      50.683  11.632  19.230  0.00  0.00    +0.377 HD
ENDBRANCH  20  21
ENDBRANCH  19  20
TORSDOF 3
ENDMDL
MODEL 8
REMARK VINA RESULT:      -5.9      2.797      4.263
REMARK  Name = ZINC33833639
REMARK  10 active torsions:
REMARK  status: ('A' for Active; 'I' for Inactive)
REMARK    1  A    between atoms: C1_1  and  C2_2
REMARK    2  A    between atoms: C5_5  and  O3_37
REMARK    3  A    between atoms: C6_7  and  C29_35
REMARK    4  A    between atoms: C6_7  and  C30_36
REMARK    5  A    between atoms: C10_12  and  C28_34
REMARK    6  A    between atoms: C15_18  and  C27_33
REMARK    7  A    between atoms: C18_22  and  C26_31
REMARK    8  A    between atoms: C21_26  and  C24_29
REMARK    9  A    between atoms: C21_26  and  C25_30
REMARK   10  A    between atoms: C26_31  and  O2_32
REMARK                            x       y       z     vdW  Elec       q    Type
REMARK                         _______ _______ _______ _____ _____    ______ ____
ROOT
ATOM      1  C   UNL     1      44.130  19.673  19.458  0.00  0.00    +0.028 C 
ATOM      2  C   UNL     1      45.257  19.487  20.466  0.00  0.00    -0.037 C 
ATOM      3  C   UNL     1      44.607  19.371  21.859  0.00  0.00    +0.019 C 
ATOM      4  C   UNL     1      43.854  20.662  22.171  0.00  0.00    -0.020 C 
ATOM      5  C   UNL     1      44.813  21.843  22.224  0.00  0.00    +0.165 C 
ATOM      8  C   UNL     1      45.657  21.978  20.956  0.00  0.00    -0.039 C 
ATOM      9  C   UNL     1      44.862  22.678  19.857  0.00  0.00    +0.035 C 
ATOM     10  C   UNL     1      46.839  22.913  21.325  0.00  0.00    +0.017 C 
ATOM     11  C   UNL     1      46.025  18.182  20.194  0.00  0.00    +0.015 C 
ATOM     12  C   UNL     1      46.856  17.918  21.463  0.00  0.00    +0.059 C 
ATOM     13  C   UNL     1      47.826  16.801  21.277  0.00  0.00    -0.037 C 
ATOM     14  C   UNL     1      48.214  16.364  20.121  0.00  0.00    -0.115 C 
ATOM     15  C   UNL     1      47.722  16.936  18.825  0.00  0.00    +0.004 C 
ATOM     16  C   UNL     1      48.913  17.225  17.908  0.00  0.00    +0.034 C 
ATOM     17  C   UNL     1      46.885  15.850  18.141  0.00  0.00    +0.043 C 
ATOM     18  C   UNL     1      47.238  14.490  18.695  0.00  0.00    +0.362 C 
ATOM     19  C   UNL     1      48.640  14.131  19.141  0.00  0.00    -0.073 C 
ATOM     23  C   UNL     1      49.525  13.951  17.914  0.00  0.00    +0.048 C 
ATOM     24  C   UNL     1      50.962  13.678  18.338  0.00  0.00    +0.026 C 
ATOM     25  C   UNL     1      51.556  14.840  19.113  0.00  0.00    -0.054 C 
ATOM     26  C   UNL     1      52.700  14.285  19.985  0.00  0.00    +0.016 C 
ATOM     27  C   UNL     1      52.180  15.832  18.116  0.00  0.00    +0.021 C 
ATOM     28  C   UNL     1      50.604  15.579  20.013  0.00  0.00    +0.035 C 
ATOM     29  O   UNL     1      46.356  13.650  18.791  0.00  0.00    -0.443 OA
ATOM     30  C   UNL     1      49.171  15.191  20.079  0.00  0.00    +0.033 C 
ATOM     31  C   UNL     1      46.940  18.240  18.983  0.00  0.00    -0.025 C 
ATOM     32  C   UNL     1      46.153  18.390  17.666  0.00  0.00    +0.022 C 
ATOM     33  C   UNL     1      47.871  19.450  19.081  0.00  0.00    +0.024 C 
ATOM     34  C   UNL     1      47.038  20.737  19.228  0.00  0.00    +0.016 C 
ATOM     35  C   UNL     1      46.237  20.648  20.519  0.00  0.00    +0.002 C 
ENDROOT
BRANCH   5   6
ATOM      6  O   UNL     1      44.067  23.051  22.416  0.00  0.00    -0.565 OA
ATOM      7  H   UNL     1      43.276  22.942  22.962  0.00  0.00    +0.374 HD
ENDBRANCH   5   6
BRANCH  19  20
ATOM     20  C   UNL     1      48.564  12.793  19.907  0.00  0.00    +0.188 C 
BRANCH  20  21
ATOM     21  O   UNL     1      47.916  13.000  21.164  0.00  0.00    -0.556 OA
ATOM     22  H   UNL     1      48.197  12.387  21.856  0.00  0.00    +0.377 HD
ENDBRANCH  20  21
ENDBRANCH  19  20
TORSDOF 3
ENDMDL
MODEL 9
REMARK VINA RESULT:      -5.9      3.633      6.420
REMARK  Name = ZINC33833639
REMARK  10 active torsions:
REMARK  status: ('A' for Active; 'I' for Inactive)
REMARK    1  A    between atoms: C1_1  and  C2_2
REMARK    2  A    between atoms: C5_5  and  O3_37
REMARK    3  A    between atoms: C6_7  and  C29_35
REMARK    4  A    between atoms: C6_7  and  C30_36
REMARK    5  A    between atoms: C10_12  and  C28_34
REMARK    6  A    between atoms: C15_18  and  C27_33
REMARK    7  A    between atoms: C18_22  and  C26_31
REMARK    8  A    between atoms: C21_26  and  C24_29
REMARK    9  A    between atoms: C21_26  and  C25_30
REMARK   10  A    between atoms: C26_31  and  O2_32
REMARK                            x       y       z     vdW  Elec       q    Type
REMARK                         _______ _______ _______ _____ _____    ______ ____
ROOT
ATOM      1  C   UNL     1      47.096  12.737  19.448  0.00  0.00    +0.028 C 
ATOM      2  C   UNL     1      47.219  13.594  18.195  0.00  0.00    -0.037 C 
ATOM      3  C   UNL     1      45.829  13.630  17.530  0.00  0.00    +0.019 C 
ATOM      4  C   UNL     1      45.424  12.211  17.136  0.00  0.00    -0.020 C 
ATOM      5  C   UNL     1      46.395  11.641  16.111  0.00  0.00    +0.165 C 
ATOM      8  C   UNL     1      47.850  11.701  16.576  0.00  0.00    -0.039 C 
ATOM      9  C   UNL     1      48.159  10.535  17.512  0.00  0.00    +0.035 C 
ATOM     10  C   UNL     1      48.715  11.502  15.305  0.00  0.00    +0.017 C 
ATOM     11  C   UNL     1      47.605  15.039  18.557  0.00  0.00    +0.015 C 
ATOM     12  C   UNL     1      47.327  15.871  17.292  0.00  0.00    +0.059 C 
ATOM     13  C   UNL     1      47.855  17.261  17.407  0.00  0.00    -0.037 C 
ATOM     14  C   UNL     1      48.759  17.625  18.261  0.00  0.00    -0.115 C 
ATOM     15  C   UNL     1      49.380  16.678  19.243  0.00  0.00    +0.004 C 
ATOM     16  C   UNL     1      50.902  16.825  19.204  0.00  0.00    +0.034 C 
ATOM     17  C   UNL     1      48.925  17.115  20.640  0.00  0.00    +0.043 C 
ATOM     18  C   UNL     1      48.470  18.555  20.616  0.00  0.00    +0.362 C 
ATOM     19  C   UNL     1      49.106  19.595  19.718  0.00  0.00    -0.073 C 
ATOM     23  C   UNL     1      50.482  19.954  20.264  0.00  0.00    +0.048 C 
ATOM     24  C   UNL     1      51.180  20.932  19.328  0.00  0.00    +0.026 C 
ATOM     25  C   UNL     1      51.421  20.332  17.955  0.00  0.00    -0.054 C 
ATOM     26  C   UNL     1      51.546  21.495  16.950  0.00  0.00    +0.016 C 
ATOM     27  C   UNL     1      52.769  19.591  17.969  0.00  0.00    +0.021 C 
ATOM     28  C   UNL     1      50.351  19.400  17.453  0.00  0.00    +0.035 C 
ATOM     29  O   UNL     1      47.550  18.890  21.347  0.00  0.00    -0.443 OA
ATOM     30  C   UNL     1      49.170  19.081  18.297  0.00  0.00    +0.033 C 
ATOM     31  C   UNL     1      49.056  15.208  18.976  0.00  0.00    -0.025 C 
ATOM     32  C   UNL     1      49.366  14.487  20.303  0.00  0.00    +0.022 C 
ATOM     33  C   UNL     1      49.985  14.607  17.919  0.00  0.00    +0.024 C 
ATOM     34  C   UNL     1      49.626  13.127  17.692  0.00  0.00    +0.016 C 
ATOM     35  C   UNL     1      48.199  13.051  17.168  0.00  0.00    +0.002 C 
ENDROOT
BRANCH   5   6
ATOM      6  O   UNL     1      46.049  10.277  15.839  0.00  0.00    -0.565 OA
ATOM      7  H   UNL     1      45.104  10.087  15.922  0.00  0.00    +0.374 HD
ENDBRANCH   5   6
BRANCH  19  20
ATOM     20  C   UNL     1      48.210  20.852  19.744  0.00  0.00    +0.188 C 
BRANCH  20  21
ATOM     21  O   UNL     1      47.016  20.602  19.000  0.00  0.00    -0.556 OA
ATOM     22  H   UNL     1      47.127  20.674  18.043  0.00  0.00    +0.377 HD
ENDBRANCH  20  21
ENDBRANCH  19  20
TORSDOF 3
ENDMDL
