MODEL 1
REMARK VINA RESULT:      -7.6      0.000      0.000
REMARK  Name = ZINC13365959
REMARK  9 active torsions:
REMARK  status: ('A' for Active; 'I' for Inactive)
REMARK    1  A    between atoms: C1_1  and  C2_2
REMARK    2  A    between atoms: C2_2  and  C26_31
REMARK    3  A    between atoms: C3_3  and  C4_4
REMARK    4  A    between atoms: C4_4  and  C5_5
REMARK    5  A    between atoms: C12_14  and  C13_15
REMARK    6  A    between atoms: C13_15  and  C14_17
REMARK    7  A    between atoms: C13_15  and  C18_21
REMARK    8  A    between atoms: C15_18  and  C16_19
REMARK    9  A    between atoms: C15_18  and  C17_20
REMARK                            x       y       z     vdW  Elec       q    Type
REMARK                         _______ _______ _______ _____ _____    ______ ____
ROOT
ATOM      6  C   UNL     1      49.427  20.536  19.599  0.00  0.00    -0.055 A 
ATOM      7  C   UNL     1      48.798  19.599  18.792  0.00  0.00    -0.021 A 
ATOM      8  C   UNL     1      47.609  19.042  19.170  0.00  0.00    +0.050 A 
ATOM      9  C   UNL     1      47.022  19.420  20.379  0.00  0.00    -0.100 A 
ATOM     10  C   UNL     1      47.654  20.370  21.201  0.00  0.00    +0.101 A 
ATOM     11  N   UNL     1      46.857  20.543  22.310  0.00  0.00    -0.595 N 
ATOM     12  C   UNL     1      45.749  19.747  22.215  0.00  0.00    +0.223 A 
ATOM     13  H   UNL     1      47.051  21.143  23.047  0.00  0.00    +0.415 HD
ATOM     14  C   UNL     1      45.790  19.039  21.075  0.00  0.00    -0.151 A 
ATOM     30  C   UNL     1      48.865  20.923  20.796  0.00  0.00    -0.011 A 
ENDROOT
BRANCH   6   5
ATOM      5  C   UNL     1      50.738  21.138  19.163  0.00  0.00    +0.108 C 
BRANCH   5   4
ATOM      1  C   UNL     1      52.673  19.408  18.056  0.00  0.00    +0.073 C 
ATOM      2  C   UNL     1      51.730  20.163  17.156  0.00  0.00    -0.132 C 
ATOM      3  C   UNL     1      51.767  19.937  15.666  0.00  0.00    +0.072 C 
ATOM      4  C   UNL     1      50.876  21.015  17.668  0.00  0.00    -0.049 C 
ENDBRANCH   5   4
ENDBRANCH   6   5
BRANCH  14  15
ATOM     15  C   UNL     1      44.762  18.046  20.599  0.00  0.00    +0.148 C 
BRANCH  15  16
ATOM     16  C   UNL     1      43.461  18.758  20.331  0.00  0.00    -0.038 A 
ATOM     17  C   UNL     1      42.342  18.457  21.096  0.00  0.00    -0.019 A 
ATOM     18  C   UNL     1      41.155  19.092  20.868  0.00  0.00    +0.051 A 
ATOM     19  C   UNL     1      41.064  20.053  19.858  0.00  0.00    -0.114 A 
ATOM     20  C   UNL     1      39.983  20.908  19.360  0.00  0.00    -0.060 A 
ATOM     21  C   UNL     1      40.495  21.639  18.357  0.00  0.00    +0.218 A 
ATOM     22  N   UNL     1      41.814  21.329  18.178  0.00  0.00    -0.598 N 
ATOM     23  H   UNL     1      42.396  21.731  17.514  0.00  0.00    +0.415 HD
ATOM     24  C   UNL     1      42.195  20.362  19.081  0.00  0.00    +0.099 A 
ATOM     25  C   UNL     1      43.395  19.703  19.330  0.00  0.00    -0.009 A 
ENDBRANCH  15  16
BRANCH  15  26
ATOM     26  C   UNL     1      44.550  16.995  21.658  0.00  0.00    -0.039 C 
ATOM     27  C   UNL     1      44.926  15.759  21.439  0.00  0.00    -0.126 C 
ATOM     28  C   UNL     1      44.617  14.687  22.452  0.00  0.00    +0.073 C 
ATOM     29  C   UNL     1      45.669  15.410  20.175  0.00  0.00    +0.072 C 
ENDBRANCH  15  26
ENDBRANCH  14  15
TORSDOF 5
ENDMDL
MODEL 2
REMARK VINA RESULT:      -6.6      2.608      7.748
REMARK  Name = ZINC13365959
REMARK  9 active torsions:
REMARK  status: ('A' for Active; 'I' for Inactive)
REMARK    1  A    between atoms: C1_1  and  C2_2
REMARK    2  A    between atoms: C2_2  and  C26_31
REMARK    3  A    between atoms: C3_3  and  C4_4
REMARK    4  A    between atoms: C4_4  and  C5_5
REMARK    5  A    between atoms: C12_14  and  C13_15
REMARK    6  A    between atoms: C13_15  and  C14_17
REMARK    7  A    between atoms: C13_15  and  C18_21
REMARK    8  A    between atoms: C15_18  and  C16_19
REMARK    9  A    between atoms: C15_18  and  C17_20
REMARK                            x       y       z     vdW  Elec       q    Type
REMARK                         _______ _______ _______ _____ _____    ______ ____
ROOT
ATOM      6  C   UNL     1      43.991  20.975  19.732  0.00  0.00    -0.055 A 
ATOM      7  C   UNL     1      44.613  20.373  18.647  0.00  0.00    -0.021 A 
ATOM      8  C   UNL     1      45.972  20.242  18.611  0.00  0.00    +0.050 A 
ATOM      9  C   UNL     1      46.742  20.718  19.674  0.00  0.00    -0.100 A 
ATOM     10  C   UNL     1      46.118  21.328  20.777  0.00  0.00    +0.101 A 
ATOM     11  N   UNL     1      47.111  21.692  21.657  0.00  0.00    -0.595 N 
ATOM     12  C   UNL     1      48.332  21.330  21.156  0.00  0.00    +0.223 A 
ATOM     13  H   UNL     1      46.967  22.135  22.507  0.00  0.00    +0.415 HD
ATOM     14  C   UNL     1      48.179  20.742  19.958  0.00  0.00    -0.151 A 
ATOM     30  C   UNL     1      44.732  21.451  20.792  0.00  0.00    -0.011 A 
ENDROOT
BRANCH   6   5
ATOM      5  C   UNL     1      42.490  21.110  19.753  0.00  0.00    +0.108 C 
BRANCH   5   4
ATOM      1  C   UNL     1      39.984  21.470  18.508  0.00  0.00    +0.073 C 
ATOM      2  C   UNL     1      40.741  20.181  18.325  0.00  0.00    -0.132 C 
ATOM      3  C   UNL     1      40.198  19.111  17.413  0.00  0.00    +0.072 C 
ATOM      4  C   UNL     1      41.873  19.990  18.955  0.00  0.00    -0.049 C 
ENDBRANCH   5   4
ENDBRANCH   6   5
BRANCH  14  15
ATOM     15  C   UNL     1      49.277  20.204  19.078  0.00  0.00    +0.148 C 
BRANCH  15  16
ATOM     16  C   UNL     1      49.200  18.699  19.041  0.00  0.00    -0.038 A 
ATOM     17  C   UNL     1      49.476  17.969  20.188  0.00  0.00    -0.019 A 
ATOM     18  C   UNL     1      49.411  16.604  20.174  0.00  0.00    +0.051 A 
ATOM     19  C   UNL     1      49.064  15.938  18.997  0.00  0.00    -0.114 A 
ATOM     20  C   UNL     1      48.896  14.528  18.636  0.00  0.00    -0.060 A 
ATOM     21  C   UNL     1      48.550  14.495  17.340  0.00  0.00    +0.218 A 
ATOM     22  N   UNL     1      48.473  15.766  16.844  0.00  0.00    -0.598 N 
ATOM     23  H   UNL     1      48.237  15.996  15.931  0.00  0.00    +0.415 HD
ATOM     24  C   UNL     1      48.782  16.674  17.832  0.00  0.00    +0.099 A 
ATOM     25  C   UNL     1      48.854  18.063  17.869  0.00  0.00    -0.009 A 
ENDBRANCH  15  16
BRANCH  15  26
ATOM     26  C   UNL     1      50.615  20.625  19.629  0.00  0.00    -0.039 C 
ATOM     27  C   UNL     1      51.567  21.010  18.816  0.00  0.00    -0.126 C 
ATOM     28  C   UNL     1      52.938  21.327  19.356  0.00  0.00    +0.073 C 
ATOM     29  C   UNL     1      51.292  21.137  17.340  0.00  0.00    +0.072 C 
ENDBRANCH  15  26
ENDBRANCH  14  15
TORSDOF 5
ENDMDL
MODEL 3
REMARK VINA RESULT:      -6.5      3.916      7.796
REMARK  Name = ZINC13365959
REMARK  9 active torsions:
REMARK  status: ('A' for Active; 'I' for Inactive)
REMARK    1  A    between atoms: C1_1  and  C2_2
REMARK    2  A    between atoms: C2_2  and  C26_31
REMARK    3  A    between atoms: C3_3  and  C4_4
REMARK    4  A    between atoms: C4_4  and  C5_5
REMARK    5  A    between atoms: C12_14  and  C13_15
REMARK    6  A    between atoms: C13_15  and  C14_17
REMARK    7  A    between atoms: C13_15  and  C18_21
REMARK    8  A    between atoms: C15_18  and  C16_19
REMARK    9  A    between atoms: C15_18  and  C17_20
REMARK                            x       y       z     vdW  Elec       q    Type
REMARK                         _______ _______ _______ _____ _____    ______ ____
ROOT
ATOM      6  C   UNL     1      44.299  19.173  19.742  0.00  0.00    -0.055 A 
ATOM      7  C   UNL     1      44.315  18.142  20.672  0.00  0.00    -0.021 A 
ATOM      8  C   UNL     1      44.953  16.967  20.394  0.00  0.00    +0.050 A 
ATOM      9  C   UNL     1      45.595  16.801  19.165  0.00  0.00    -0.100 A 
ATOM     10  C   UNL     1      45.582  17.843  18.219  0.00  0.00    +0.101 A 
ATOM     11  N   UNL     1      46.283  17.402  17.119  0.00  0.00    -0.595 N 
ATOM     12  C   UNL     1      46.739  16.131  17.337  0.00  0.00    +0.223 A 
ATOM     13  H   UNL     1      46.433  17.918  16.312  0.00  0.00    +0.415 HD
ATOM     14  C   UNL     1      46.353  15.708  18.552  0.00  0.00    -0.151 A 
ATOM     30  C   UNL     1      44.925  19.031  18.523  0.00  0.00    -0.011 A 
ENDROOT
BRANCH   6   5
ATOM      5  C   UNL     1      43.589  20.462  20.069  0.00  0.00    +0.108 C 
BRANCH   5   4
ATOM      1  C   UNL     1      40.945  19.570  20.482  0.00  0.00    +0.073 C 
ATOM      2  C   UNL     1      41.289  20.372  19.254  0.00  0.00    -0.132 C 
ATOM      3  C   UNL     1      40.206  20.766  18.283  0.00  0.00    +0.072 C 
ATOM      4  C   UNL     1      42.529  20.730  19.031  0.00  0.00    -0.049 C 
ENDBRANCH   5   4
ENDBRANCH   6   5
BRANCH  14  15
ATOM     15  C   UNL     1      46.650  14.366  19.170  0.00  0.00    +0.148 C 
BRANCH  15  16
ATOM     16  C   UNL     1      46.545  13.293  18.117  0.00  0.00    -0.038 A 
ATOM     17  C   UNL     1      47.698  12.693  17.630  0.00  0.00    -0.019 A 
ATOM     18  C   UNL     1      47.623  11.718  16.675  0.00  0.00    +0.051 A 
ATOM     19  C   UNL     1      46.377  11.321  16.186  0.00  0.00    -0.114 A 
ATOM     20  C   UNL     1      45.939  10.332  15.197  0.00  0.00    -0.060 A 
ATOM     21  C   UNL     1      44.599  10.399  15.144  0.00  0.00    +0.218 A 
ATOM     22  N   UNL     1      44.143  11.342  16.023  0.00  0.00    -0.598 N 
ATOM     23  H   UNL     1      43.211  11.567  16.165  0.00  0.00    +0.415 HD
ATOM     24  C   UNL     1      45.206  11.925  16.677  0.00  0.00    +0.099 A 
ATOM     25  C   UNL     1      45.305  12.916  17.649  0.00  0.00    -0.009 A 
ENDBRANCH  15  16
BRANCH  15  26
ATOM     26  C   UNL     1      45.658  14.089  20.270  0.00  0.00    -0.039 C 
ATOM     27  C   UNL     1      46.060  13.555  21.397  0.00  0.00    -0.126 C 
ATOM     28  C   UNL     1      45.055  13.179  22.454  0.00  0.00    +0.073 C 
ATOM     29  C   UNL     1      47.529  13.318  21.635  0.00  0.00    +0.072 C 
ENDBRANCH  15  26
ENDBRANCH  14  15
TORSDOF 5
ENDMDL
MODEL 4
REMARK VINA RESULT:      -6.3      5.830      8.577
REMARK  Name = ZINC13365959
REMARK  9 active torsions:
REMARK  status: ('A' for Active; 'I' for Inactive)
REMARK    1  A    between atoms: C1_1  and  C2_2
REMARK    2  A    between atoms: C2_2  and  C26_31
REMARK    3  A    between atoms: C3_3  and  C4_4
REMARK    4  A    between atoms: C4_4  and  C5_5
REMARK    5  A    between atoms: C12_14  and  C13_15
REMARK    6  A    between atoms: C13_15  and  C14_17
REMARK    7  A    between atoms: C13_15  and  C18_21
REMARK    8  A    between atoms: C15_18  and  C16_19
REMARK    9  A    between atoms: C15_18  and  C17_20
REMARK                            x       y       z     vdW  Elec       q    Type
REMARK                         _______ _______ _______ _____ _____    ______ ____
ROOT
ATOM      6  C   UNL     1      49.516  17.794  18.545  0.00  0.00    -0.055 A 
ATOM      7  C   UNL     1      50.259  16.621  18.544  0.00  0.00    -0.021 A 
ATOM      8  C   UNL     1      49.786  15.500  17.924  0.00  0.00    +0.050 A 
ATOM      9  C   UNL     1      48.545  15.534  17.285  0.00  0.00    -0.100 A 
ATOM     10  C   UNL     1      47.788  16.720  17.281  0.00  0.00    +0.101 A 
ATOM     11  N   UNL     1      46.629  16.460  16.586  0.00  0.00    -0.595 N 
ATOM     12  C   UNL     1      46.629  15.164  16.149  0.00  0.00    +0.223 A 
ATOM     13  H   UNL     1      45.919  17.102  16.427  0.00  0.00    +0.415 HD
ATOM     14  C   UNL     1      47.755  14.548  16.543  0.00  0.00    -0.151 A 
ATOM     30  C   UNL     1      48.290  17.850  17.920  0.00  0.00    -0.011 A 
ENDROOT
BRANCH   6   5
ATOM      5  C   UNL     1      50.057  19.020  19.235  0.00  0.00    +0.108 C 
BRANCH   5   4
ATOM      1  C   UNL     1      52.570  19.440  18.024  0.00  0.00    +0.073 C 
ATOM      2  C   UNL     1      51.386  20.278  17.620  0.00  0.00    -0.132 C 
ATOM      3  C   UNL     1      51.523  21.291  16.512  0.00  0.00    +0.072 C 
ATOM      4  C   UNL     1      50.236  20.127  18.228  0.00  0.00    -0.049 C 
ENDBRANCH   5   4
ENDBRANCH   6   5
BRANCH  14  15
ATOM     15  C   UNL     1      48.138  13.117  16.267  0.00  0.00    +0.148 C 
BRANCH  15  16
ATOM     16  C   UNL     1      49.134  13.071  15.137  0.00  0.00    -0.038 A 
ATOM     17  C   UNL     1      50.493  13.051  15.419  0.00  0.00    -0.019 A 
ATOM     18  C   UNL     1      51.411  13.009  14.408  0.00  0.00    +0.051 A 
ATOM     19  C   UNL     1      50.980  12.986  13.080  0.00  0.00    -0.114 A 
ATOM     20  C   UNL     1      51.667  12.935  11.787  0.00  0.00    -0.060 A 
ATOM     21  C   UNL     1      50.717  12.936  10.839  0.00  0.00    +0.218 A 
ATOM     22  N   UNL     1      49.479  12.973  11.418  0.00  0.00    -0.598 N 
ATOM     23  H   UNL     1      48.637  12.978  10.936  0.00  0.00    +0.415 HD
ATOM     24  C   UNL     1      49.604  13.005  12.789  0.00  0.00    +0.099 A 
ATOM     25  C   UNL     1      48.686  13.047  13.834  0.00  0.00    -0.009 A 
ENDBRANCH  15  16
BRANCH  15  26
ATOM     26  C   UNL     1      46.908  12.333  15.885  0.00  0.00    -0.039 C 
ATOM     27  C   UNL     1      46.767  11.095  16.292  0.00  0.00    -0.126 C 
ATOM     28  C   UNL     1      45.593  10.277  15.822  0.00  0.00    +0.073 C 
ATOM     29  C   UNL     1      47.780  10.491  17.230  0.00  0.00    +0.072 C 
ENDBRANCH  15  26
ENDBRANCH  14  15
TORSDOF 5
ENDMDL
MODEL 5
REMARK VINA RESULT:      -6.1      2.146      4.710
REMARK  Name = ZINC13365959
REMARK  9 active torsions:
REMARK  status: ('A' for Active; 'I' for Inactive)
REMARK    1  A    between atoms: C1_1  and  C2_2
REMARK    2  A    between atoms: C2_2  and  C26_31
REMARK    3  A    between atoms: C3_3  and  C4_4
REMARK    4  A    between atoms: C4_4  and  C5_5
REMARK    5  A    between atoms: C12_14  and  C13_15
REMARK    6  A    between atoms: C13_15  and  C14_17
REMARK    7  A    between atoms: C13_15  and  C18_21
REMARK    8  A    between atoms: C15_18  and  C16_19
REMARK    9  A    between atoms: C15_18  and  C17_20
REMARK                            x       y       z     vdW  Elec       q    Type
REMARK                         _______ _______ _______ _____ _____    ______ ____
ROOT
ATOM      6  C   UNL     1      49.769  20.566  19.669  0.00  0.00    -0.055 A 
ATOM      7  C   UNL     1      48.909  20.166  18.655  0.00  0.00    -0.021 A 
ATOM      8  C   UNL     1      47.735  19.533  18.950  0.00  0.00    +0.050 A 
ATOM      9  C   UNL     1      47.397  19.286  20.282  0.00  0.00    -0.100 A 
ATOM     10  C   UNL     1      48.264  19.690  21.313  0.00  0.00    +0.101 A 
ATOM     11  N   UNL     1      47.680  19.321  22.504  0.00  0.00    -0.595 N 
ATOM     12  C   UNL     1      46.480  18.709  22.262  0.00  0.00    +0.223 A 
ATOM     13  H   UNL     1      48.060  19.475  23.382  0.00  0.00    +0.415 HD
ATOM     14  C   UNL     1      46.254  18.651  20.940  0.00  0.00    -0.151 A 
ATOM     30  C   UNL     1      49.455  20.333  20.990  0.00  0.00    -0.011 A 
ENDROOT
BRANCH   6   5
ATOM      5  C   UNL     1      51.060  21.263  19.322  0.00  0.00    +0.108 C 
BRANCH   5   4
ATOM      1  C   UNL     1      52.752  19.287  18.232  0.00  0.00    +0.073 C 
ATOM      2  C   UNL     1      52.017  20.239  17.324  0.00  0.00    -0.132 C 
ATOM      3  C   UNL     1      52.125  20.087  15.828  0.00  0.00    +0.072 C 
ATOM      4  C   UNL     1      51.284  21.196  17.833  0.00  0.00    -0.049 C 
ENDBRANCH   5   4
ENDBRANCH   6   5
BRANCH  14  15
ATOM     15  C   UNL     1      45.048  18.052  20.263  0.00  0.00    +0.148 C 
BRANCH  15  16
ATOM     16  C   UNL     1      45.481  16.910  19.381  0.00  0.00    -0.038 A 
ATOM     17  C   UNL     1      45.957  17.171  18.103  0.00  0.00    -0.019 A 
ATOM     18  C   UNL     1      46.355  16.149  17.289  0.00  0.00    +0.051 A 
ATOM     19  C   UNL     1      46.283  14.831  17.745  0.00  0.00    -0.114 A 
ATOM     20  C   UNL     1      46.621  13.531  17.159  0.00  0.00    -0.060 A 
ATOM     21  C   UNL     1      46.331  12.599  18.082  0.00  0.00    +0.218 A 
ATOM     22  N   UNL     1      45.845  13.196  19.211  0.00  0.00    -0.598 N 
ATOM     23  H   UNL     1      45.570  12.728  20.015  0.00  0.00    +0.415 HD
ATOM     24  C   UNL     1      45.802  14.561  19.039  0.00  0.00    +0.099 A 
ATOM     25  C   UNL     1      45.402  15.618  19.852  0.00  0.00    -0.009 A 
ENDBRANCH  15  16
BRANCH  15  26
ATOM     26  C   UNL     1      44.369  19.105  19.425  0.00  0.00    -0.039 C 
ATOM     27  C   UNL     1      43.128  19.443  19.675  0.00  0.00    -0.126 C 
ATOM     28  C   UNL     1      42.414  20.414  18.771  0.00  0.00    +0.073 C 
ATOM     29  C   UNL     1      42.415  18.859  20.868  0.00  0.00    +0.072 C 
ENDBRANCH  15  26
ENDBRANCH  14  15
TORSDOF 5
ENDMDL
MODEL 6
REMARK VINA RESULT:      -6.1      2.757      8.022
REMARK  Name = ZINC13365959
REMARK  9 active torsions:
REMARK  status: ('A' for Active; 'I' for Inactive)
REMARK    1  A    between atoms: C1_1  and  C2_2
REMARK    2  A    between atoms: C2_2  and  C26_31
REMARK    3  A    between atoms: C3_3  and  C4_4
REMARK    4  A    between atoms: C4_4  and  C5_5
REMARK    5  A    between atoms: C12_14  and  C13_15
REMARK    6  A    between atoms: C13_15  and  C14_17
REMARK    7  A    between atoms: C13_15  and  C18_21
REMARK    8  A    between atoms: C15_18  and  C16_19
REMARK    9  A    between atoms: C15_18  and  C17_20
REMARK                            x       y       z     vdW  Elec       q    Type
REMARK                         _______ _______ _______ _____ _____    ______ ____
ROOT
ATOM      6  C   UNL     1      44.857  19.838  19.682  0.00  0.00    -0.055 A 
ATOM      7  C   UNL     1      45.950  19.770  20.535  0.00  0.00    -0.021 A 
ATOM      8  C   UNL     1      47.069  19.072  20.177  0.00  0.00    +0.050 A 
ATOM      9  C   UNL     1      47.114  18.423  18.942  0.00  0.00    -0.100 A 
ATOM     10  C   UNL     1      46.010  18.489  18.072  0.00  0.00    +0.101 A 
ATOM     11  N   UNL     1      46.335  17.767  16.946  0.00  0.00    -0.595 N 
ATOM     12  C   UNL     1      47.597  17.256  17.070  0.00  0.00    +0.223 A 
ATOM     13  H   UNL     1      45.756  17.642  16.178  0.00  0.00    +0.415 HD
ATOM     14  C   UNL     1      48.121  17.610  18.255  0.00  0.00    -0.151 A 
ATOM     30  C   UNL     1      44.880  19.205  18.458  0.00  0.00    -0.011 A 
ENDROOT
BRANCH   6   5
ATOM      5  C   UNL     1      43.633  20.613  20.097  0.00  0.00    +0.108 C 
BRANCH   5   4
ATOM      1  C   UNL     1      41.698  22.233  18.838  0.00  0.00    +0.073 C 
ATOM      2  C   UNL     1      41.544  20.735  18.838  0.00  0.00    -0.132 C 
ATOM      3  C   UNL     1      40.397  20.094  18.100  0.00  0.00    +0.072 C 
ATOM      4  C   UNL     1      42.409  19.988  19.479  0.00  0.00    -0.049 C 
ENDBRANCH   5   4
ENDBRANCH   6   5
BRANCH  14  15
ATOM     15  C   UNL     1      49.487  17.248  18.776  0.00  0.00    +0.148 C 
BRANCH  15  16
ATOM     16  C   UNL     1      50.272  18.505  19.048  0.00  0.00    -0.038 A 
ATOM     17  C   UNL     1      50.508  19.404  18.016  0.00  0.00    -0.019 A 
ATOM     18  C   UNL     1      51.217  20.550  18.243  0.00  0.00    +0.051 A 
ATOM     19  C   UNL     1      51.709  20.819  19.522  0.00  0.00    -0.114 A 
ATOM     20  C   UNL     1      52.480  21.920  20.106  0.00  0.00    -0.060 A 
ATOM     21  C   UNL     1      52.663  21.625  21.403  0.00  0.00    +0.218 A 
ATOM     22  N   UNL     1      52.065  20.432  21.699  0.00  0.00    -0.598 N 
ATOM     23  H   UNL     1      52.059  20.013  22.574  0.00  0.00    +0.415 HD
ATOM     24  C   UNL     1      51.472  19.912  20.570  0.00  0.00    +0.099 A 
ATOM     25  C   UNL     1      50.747  18.751  20.317  0.00  0.00    -0.009 A 
ENDBRANCH  15  16
BRANCH  15  26
ATOM     26  C   UNL     1      50.211  16.415  17.749  0.00  0.00    -0.039 C 
ATOM     27  C   UNL     1      50.445  15.147  17.980  0.00  0.00    -0.126 C 
ATOM     28  C   UNL     1      51.262  14.341  17.004  0.00  0.00    +0.073 C 
ATOM     29  C   UNL     1      49.895  14.493  19.222  0.00  0.00    +0.072 C 
ENDBRANCH  15  26
ENDBRANCH  14  15
TORSDOF 5
ENDMDL
MODEL 7
REMARK VINA RESULT:      -6.0      3.168      8.252
REMARK  Name = ZINC13365959
REMARK  9 active torsions:
REMARK  status: ('A' for Active; 'I' for Inactive)
REMARK    1  A    between atoms: C1_1  and  C2_2
REMARK    2  A    between atoms: C2_2  and  C26_31
REMARK    3  A    between atoms: C3_3  and  C4_4
REMARK    4  A    between atoms: C4_4  and  C5_5
REMARK    5  A    between atoms: C12_14  and  C13_15
REMARK    6  A    between atoms: C13_15  and  C14_17
REMARK    7  A    between atoms: C13_15  and  C18_21
REMARK    8  A    between atoms: C15_18  and  C16_19
REMARK    9  A    between atoms: C15_18  and  C17_20
REMARK                            x       y       z     vdW  Elec       q    Type
REMARK                         _______ _______ _______ _____ _____    ______ ____
ROOT
ATOM      6  C   UNL     1      44.875  20.562  20.000  0.00  0.00    -0.055 A 
ATOM      7  C   UNL     1      45.662  21.020  18.952  0.00  0.00    -0.021 A 
ATOM      8  C   UNL     1      46.901  20.490  18.730  0.00  0.00    +0.050 A 
ATOM      9  C   UNL     1      47.381  19.479  19.565  0.00  0.00    -0.100 A 
ATOM     10  C   UNL     1      46.588  19.010  20.629  0.00  0.00    +0.101 A 
ATOM     11  N   UNL     1      47.308  18.028  21.271  0.00  0.00    -0.595 N 
ATOM     12  C   UNL     1      48.515  17.857  20.651  0.00  0.00    +0.223 A 
ATOM     13  H   UNL     1      47.002  17.529  22.045  0.00  0.00    +0.415 HD
ATOM     14  C   UNL     1      48.624  18.707  19.617  0.00  0.00    -0.151 A 
ATOM     30  C   UNL     1      45.329  19.565  20.836  0.00  0.00    -0.011 A 
ENDROOT
BRANCH   6   5
ATOM      5  C   UNL     1      43.510  21.160  20.227  0.00  0.00    +0.108 C 
BRANCH   5   4
ATOM      1  C   UNL     1      41.407  19.295  20.459  0.00  0.00    +0.073 C 
ATOM      2  C   UNL     1      41.612  20.047  19.170  0.00  0.00    -0.132 C 
ATOM      3  C   UNL     1      40.647  19.861  18.027  0.00  0.00    +0.072 C 
ATOM      4  C   UNL     1      42.628  20.864  19.042  0.00  0.00    -0.049 C 
ENDBRANCH   5   4
ENDBRANCH   6   5
BRANCH  14  15
ATOM     15  C   UNL     1      49.800  18.836  18.683  0.00  0.00    +0.148 C 
BRANCH  15  16
ATOM     16  C   UNL     1      50.220  17.468  18.211  0.00  0.00    -0.038 A 
ATOM     17  C   UNL     1      51.492  16.998  18.513  0.00  0.00    -0.019 A 
ATOM     18  C   UNL     1      51.891  15.760  18.094  0.00  0.00    +0.051 A 
ATOM     19  C   UNL     1      51.014  14.961  17.357  0.00  0.00    -0.114 A 
ATOM     20  C   UNL     1      51.106  13.621  16.772  0.00  0.00    -0.060 A 
ATOM     21  C   UNL     1      49.932  13.377  16.168  0.00  0.00    +0.218 A 
ATOM     22  N   UNL     1      49.094  14.445  16.327  0.00  0.00    -0.598 N 
ATOM     23  H   UNL     1      48.189  14.500  15.982  0.00  0.00    +0.415 HD
ATOM     24  C   UNL     1      49.725  15.432  17.050  0.00  0.00    +0.099 A 
ATOM     25  C   UNL     1      49.339  16.696  17.487  0.00  0.00    -0.009 A 
ENDBRANCH  15  16
BRANCH  15  26
ATOM     26  C   UNL     1      50.947  19.492  19.408  0.00  0.00    -0.039 C 
ATOM     27  C   UNL     1      51.479  20.591  18.933  0.00  0.00    -0.126 C 
ATOM     28  C   UNL     1      52.694  21.187  19.595  0.00  0.00    +0.073 C 
ATOM     29  C   UNL     1      50.876  21.259  17.724  0.00  0.00    +0.072 C 
ENDBRANCH  15  26
ENDBRANCH  14  15
TORSDOF 5
ENDMDL
MODEL 8
REMARK VINA RESULT:      -6.0      2.356      4.662
REMARK  Name = ZINC13365959
REMARK  9 active torsions:
REMARK  status: ('A' for Active; 'I' for Inactive)
REMARK    1  A    between atoms: C1_1  and  C2_2
REMARK    2  A    between atoms: C2_2  and  C26_31
REMARK    3  A    between atoms: C3_3  and  C4_4
REMARK    4  A    between atoms: C4_4  and  C5_5
REMARK    5  A    between atoms: C12_14  and  C13_15
REMARK    6  A    between atoms: C13_15  and  C14_17
REMARK    7  A    between atoms: C13_15  and  C18_21
REMARK    8  A    between atoms: C15_18  and  C16_19
REMARK    9  A    between atoms: C15_18  and  C17_20
REMARK                            x       y       z     vdW  Elec       q    Type
REMARK                         _______ _______ _______ _____ _____    ______ ____
ROOT
ATOM      6  C   UNL     1      48.576  21.362  22.011  0.00  0.00    -0.055 A 
ATOM      7  C   UNL     1      48.068  20.077  21.874  0.00  0.00    -0.021 A 
ATOM      8  C   UNL     1      46.792  19.878  21.432  0.00  0.00    +0.050 A 
ATOM      9  C   UNL     1      45.990  20.976  21.114  0.00  0.00    -0.100 A 
ATOM     10  C   UNL     1      46.499  22.281  21.249  0.00  0.00    +0.101 A 
ATOM     11  N   UNL     1      45.501  23.148  20.869  0.00  0.00    -0.595 N 
ATOM     12  C   UNL     1      44.389  22.443  20.495  0.00  0.00    +0.223 A 
ATOM     13  H   UNL     1      45.575  24.116  20.863  0.00  0.00    +0.415 HD
ATOM     14  C   UNL     1      44.617  21.127  20.626  0.00  0.00    -0.151 A 
ATOM     30  C   UNL     1      47.803  22.460  21.702  0.00  0.00    -0.011 A 
ENDROOT
BRANCH   6   5
ATOM      5  C   UNL     1      49.988  21.559  22.501  0.00  0.00    +0.108 C 
BRANCH   5   4
ATOM      1  C   UNL     1      52.079  21.163  20.649  0.00  0.00    +0.073 C 
ATOM      2  C   UNL     1      51.736  20.086  21.645  0.00  0.00    -0.132 C 
ATOM      3  C   UNL     1      52.560  18.825  21.704  0.00  0.00    +0.072 C 
ATOM      4  C   UNL     1      50.723  20.245  22.460  0.00  0.00    -0.049 C 
ENDBRANCH   5   4
ENDBRANCH   6   5
BRANCH  14  15
ATOM     15  C   UNL     1      43.647  20.014  20.320  0.00  0.00    +0.148 C 
BRANCH  15  16
ATOM     16  C   UNL     1      44.396  18.834  19.756  0.00  0.00    -0.038 A 
ATOM     17  C   UNL     1      44.382  17.624  20.436  0.00  0.00    -0.019 A 
ATOM     18  C   UNL     1      45.054  16.543  19.941  0.00  0.00    +0.051 A 
ATOM     19  C   UNL     1      45.761  16.655  18.742  0.00  0.00    -0.114 A 
ATOM     20  C   UNL     1      46.564  15.726  17.942  0.00  0.00    -0.060 A 
ATOM     21  C   UNL     1      47.004  16.410  16.873  0.00  0.00    +0.218 A 
ATOM     22  N   UNL     1      46.541  17.695  16.918  0.00  0.00    -0.598 N 
ATOM     23  H   UNL     1      46.724  18.377  16.253  0.00  0.00    +0.415 HD
ATOM     24  C   UNL     1      45.778  17.879  18.049  0.00  0.00    +0.099 A 
ATOM     25  C   UNL     1      45.086  18.968  18.571  0.00  0.00    -0.009 A 
ENDBRANCH  15  16
BRANCH  15  26
ATOM     26  C   UNL     1      42.634  20.495  19.313  0.00  0.00    -0.039 C 
ATOM     27  C   UNL     1      41.379  20.134  19.422  0.00  0.00    -0.126 C 
ATOM     28  C   UNL     1      40.388  20.523  18.357  0.00  0.00    +0.073 C 
ATOM     29  C   UNL     1      40.928  19.330  20.615  0.00  0.00    +0.072 C 
ENDBRANCH  15  26
ENDBRANCH  14  15
TORSDOF 5
ENDMDL
MODEL 9
REMARK VINA RESULT:      -6.0      3.139      7.937
REMARK  Name = ZINC13365959
REMARK  9 active torsions:
REMARK  status: ('A' for Active; 'I' for Inactive)
REMARK    1  A    between atoms: C1_1  and  C2_2
REMARK    2  A    between atoms: C2_2  and  C26_31
REMARK    3  A    between atoms: C3_3  and  C4_4
REMARK    4  A    between atoms: C4_4  and  C5_5
REMARK    5  A    between atoms: C12_14  and  C13_15
REMARK    6  A    between atoms: C13_15  and  C14_17
REMARK    7  A    between atoms: C13_15  and  C18_21
REMARK    8  A    between atoms: C15_18  and  C16_19
REMARK    9  A    between atoms: C15_18  and  C17_20
REMARK                            x       y       z     vdW  Elec       q    Type
REMARK                         _______ _______ _______ _____ _____    ______ ____
ROOT
ATOM      6  C   UNL     1      44.875  18.881  18.953  0.00  0.00    -0.055 A 
ATOM      7  C   UNL     1      45.882  18.979  18.002  0.00  0.00    -0.021 A 
ATOM      8  C   UNL     1      46.928  18.102  18.006  0.00  0.00    +0.050 A 
ATOM      9  C   UNL     1      46.986  17.097  18.973  0.00  0.00    -0.100 A 
ATOM     10  C   UNL     1      45.968  16.991  19.939  0.00  0.00    +0.101 A 
ATOM     11  N   UNL     1      46.285  15.925  20.749  0.00  0.00    -0.595 N 
ATOM     12  C   UNL     1      47.455  15.353  20.329  0.00  0.00    +0.223 A 
ATOM     13  H   UNL     1      45.756  15.622  21.504  0.00  0.00    +0.415 HD
ATOM     14  C   UNL     1      47.933  16.017  19.264  0.00  0.00    -0.151 A 
ATOM     30  C   UNL     1      44.912  17.897  19.917  0.00  0.00    -0.011 A 
ENDROOT
BRANCH   6   5
ATOM      5  C   UNL     1      43.729  19.859  18.931  0.00  0.00    +0.108 C 
BRANCH   5   4
ATOM      1  C   UNL     1      40.927  19.878  18.608  0.00  0.00    +0.073 C 
ATOM      2  C   UNL     1      41.531  19.551  19.948  0.00  0.00    -0.132 C 
ATOM      3  C   UNL     1      40.641  19.157  21.100  0.00  0.00    +0.072 C 
ATOM      4  C   UNL     1      42.829  19.606  20.113  0.00  0.00    -0.049 C 
ENDBRANCH   5   4
ENDBRANCH   6   5
BRANCH  14  15
ATOM     15  C   UNL     1      49.198  15.706  18.508  0.00  0.00    +0.148 C 
BRANCH  15  16
ATOM     16  C   UNL     1      49.991  16.973  18.311  0.00  0.00    -0.038 A 
ATOM     17  C   UNL     1      50.392  17.711  19.416  0.00  0.00    -0.019 A 
ATOM     18  C   UNL     1      51.112  18.861  19.257  0.00  0.00    +0.051 A 
ATOM     19  C   UNL     1      51.447  19.299  17.974  0.00  0.00    -0.114 A 
ATOM     20  C   UNL     1      52.191  20.448  17.452  0.00  0.00    -0.060 A 
ATOM     21  C   UNL     1      52.186  20.341  16.113  0.00  0.00    +0.218 A 
ATOM     22  N   UNL     1      51.509  19.215  15.737  0.00  0.00    -0.598 N 
ATOM     23  H   UNL     1      51.375  18.924  14.821  0.00  0.00    +0.415 HD
ATOM     24  C   UNL     1      51.043  18.554  16.851  0.00  0.00    +0.099 A 
ATOM     25  C   UNL     1      50.311  17.385  17.036  0.00  0.00    -0.009 A 
ENDBRANCH  15  16
BRANCH  15  26
ATOM     26  C   UNL     1      48.848  15.118  17.165  0.00  0.00    -0.039 C 
ATOM     27  C   UNL     1      49.084  13.852  16.922  0.00  0.00    -0.126 C 
ATOM     28  C   UNL     1      48.836  13.290  15.547  0.00  0.00    +0.073 C 
ATOM     29  C   UNL     1      49.602  12.959  18.020  0.00  0.00    +0.072 C 
ENDBRANCH  15  26
ENDBRANCH  14  15
TORSDOF 5
ENDMDL
