MODEL 1
REMARK VINA RESULT:      -5.4      0.000      0.000
REMARK  Name = ZINC01642327
REMARK  1 active torsions:
REMARK  status: ('A' for Active; 'I' for Inactive)
REMARK    1  A    between atoms: C1_1  and  N1_2
REMARK                            x       y       z     vdW  Elec       q    Type
REMARK                         _______ _______ _______ _____ _____    ______ ____
ROOT
ATOM      1  C   UNL     1      44.358  23.253  19.581  0.00  0.00    +0.325 C 
ATOM      2  N   UNL     1      43.965  21.864  19.837  0.00  0.00    -0.480 N 
ATOM      3  C   UNL     1      44.836  21.055  20.463  0.00  0.00    +0.392 A 
ATOM      4  C   UNL     1      44.534  19.748  20.740  0.00  0.00    -0.235 A 
ATOM      5  C   UNL     1      45.218  18.620  21.385  0.00  0.00    -0.092 A 
ATOM      6  C   UNL     1      46.465  18.446  21.977  0.00  0.00    +0.028 A 
ATOM      7  C   UNL     1      46.806  17.220  22.505  0.00  0.00    -0.006 A 
ATOM      8  C   UNL     1      45.911  16.159  22.449  0.00  0.00    +0.012 A 
ATOM      9  C   UNL     1      44.682  16.307  21.873  0.00  0.00    +0.036 A 
ATOM     10  C   UNL     1      44.305  17.542  21.326  0.00  0.00    +0.087 A 
ATOM     11  N   UNL     1      43.175  17.945  20.714  0.00  0.00    -0.493 NA
ATOM     12  C   UNL     1      43.222  19.206  20.343  0.00  0.00    +0.194 A 
ATOM     13  C   UNL     1      42.296  20.123  19.659  0.00  0.00    -0.054 A 
ATOM     14  C   UNL     1      41.033  19.706  19.246  0.00  0.00    +0.092 A 
ATOM     15  C   UNL     1      40.196  20.596  18.607  0.00  0.00    -0.006 A 
ATOM     16  C   UNL     1      40.607  21.901  18.378  0.00  0.00    +0.064 A 
ATOM     17  C   UNL     1      41.853  22.327  18.783  0.00  0.00    -0.022 A 
ATOM     18  C   UNL     1      42.716  21.445  19.428  0.00  0.00    +0.157 A 
ENDROOT
TORSDOF 0
ENDMDL
MODEL 2
REMARK VINA RESULT:      -5.4      1.456      5.973
REMARK  Name = ZINC01642327
REMARK  1 active torsions:
REMARK  status: ('A' for Active; 'I' for Inactive)
REMARK    1  A    between atoms: C1_1  and  N1_2
REMARK                            x       y       z     vdW  Elec       q    Type
REMARK                         _______ _______ _______ _____ _____    ______ ____
ROOT
ATOM      1  C   UNL     1      45.810  16.653  20.708  0.00  0.00    +0.325 C 
ATOM      2  N   UNL     1      45.389  18.031  20.439  0.00  0.00    -0.480 N 
ATOM      3  C   UNL     1      44.138  18.247  20.001  0.00  0.00    +0.392 A 
ATOM      4  C   UNL     1      43.674  19.508  19.735  0.00  0.00    -0.235 A 
ATOM      5  C   UNL     1      42.413  20.091  19.260  0.00  0.00    -0.092 A 
ATOM      6  C   UNL     1      41.176  19.571  18.891  0.00  0.00    +0.028 A 
ATOM      7  C   UNL     1      40.173  20.420  18.481  0.00  0.00    -0.006 A 
ATOM      8  C   UNL     1      40.390  21.792  18.433  0.00  0.00    +0.012 A 
ATOM      9  C   UNL     1      41.595  22.324  18.789  0.00  0.00    +0.036 A 
ATOM     10  C   UNL     1      42.637  21.486  19.212  0.00  0.00    +0.087 A 
ATOM     11  N   UNL     1      43.897  21.751  19.611  0.00  0.00    -0.493 NA
ATOM     12  C   UNL     1      44.565  20.665  19.931  0.00  0.00    +0.194 A 
ATOM     13  C   UNL     1      45.928  20.389  20.413  0.00  0.00    -0.054 A 
ATOM     14  C   UNL     1      46.844  21.415  20.630  0.00  0.00    +0.092 A 
ATOM     15  C   UNL     1      48.112  21.114  21.081  0.00  0.00    -0.006 A 
ATOM     16  C   UNL     1      48.474  19.796  21.318  0.00  0.00    +0.064 A 
ATOM     17  C   UNL     1      47.577  18.771  21.109  0.00  0.00    -0.022 A 
ATOM     18  C   UNL     1      46.292  19.051  20.652  0.00  0.00    +0.157 A 
ENDROOT
TORSDOF 0
ENDMDL
MODEL 3
REMARK VINA RESULT:      -5.3      3.488      6.641
REMARK  Name = ZINC01642327
REMARK  1 active torsions:
REMARK  status: ('A' for Active; 'I' for Inactive)
REMARK    1  A    between atoms: C1_1  and  N1_2
REMARK                            x       y       z     vdW  Elec       q    Type
REMARK                         _______ _______ _______ _____ _____    ______ ____
ROOT
ATOM      1  C   UNL     1      47.573  16.475  17.545  0.00  0.00    +0.325 C 
ATOM      2  N   UNL     1      47.303  17.825  18.046  0.00  0.00    -0.480 N 
ATOM      3  C   UNL     1      46.027  18.234  18.137  0.00  0.00    +0.392 A 
ATOM      4  C   UNL     1      45.700  19.480  18.600  0.00  0.00    -0.235 A 
ATOM      5  C   UNL     1      44.459  20.231  18.826  0.00  0.00    -0.092 A 
ATOM      6  C   UNL     1      43.106  19.954  18.650  0.00  0.00    +0.028 A 
ATOM      7  C   UNL     1      42.166  20.909  18.969  0.00  0.00    -0.006 A 
ATOM      8  C   UNL     1      42.561  22.145  19.466  0.00  0.00    +0.012 A 
ATOM      9  C   UNL     1      43.882  22.438  19.646  0.00  0.00    +0.036 A 
ATOM     10  C   UNL     1      44.864  21.488  19.330  0.00  0.00    +0.087 A 
ATOM     11  N   UNL     1      46.209  21.525  19.413  0.00  0.00    -0.493 NA
ATOM     12  C   UNL     1      46.770  20.406  19.012  0.00  0.00    +0.194 A 
ATOM     13  C   UNL     1      48.156  19.922  18.897  0.00  0.00    -0.054 A 
ATOM     14  C   UNL     1      49.237  20.721  19.261  0.00  0.00    +0.092 A 
ATOM     15  C   UNL     1      50.520  20.232  19.138  0.00  0.00    -0.006 A 
ATOM     16  C   UNL     1      50.734  18.949  18.654  0.00  0.00    +0.064 A 
ATOM     17  C   UNL     1      49.674  18.148  18.292  0.00  0.00    -0.022 A 
ATOM     18  C   UNL     1      48.370  18.621  18.406  0.00  0.00    +0.157 A 
ENDROOT
TORSDOF 0
ENDMDL
MODEL 4
REMARK VINA RESULT:      -5.3     21.559     24.121
REMARK  Name = ZINC01642327
REMARK  1 active torsions:
REMARK  status: ('A' for Active; 'I' for Inactive)
REMARK    1  A    between atoms: C1_1  and  N1_2
REMARK                            x       y       z     vdW  Elec       q    Type
REMARK                         _______ _______ _______ _____ _____    ______ ____
ROOT
ATOM      1  C   UNL     1      58.875  34.276   5.631  0.00  0.00    +0.325 C 
ATOM      2  N   UNL     1      57.606  33.676   5.209  0.00  0.00    -0.480 N 
ATOM      3  C   UNL     1      56.481  34.040   5.846  0.00  0.00    +0.392 A 
ATOM      4  C   UNL     1      55.259  33.525   5.502  0.00  0.00    -0.235 A 
ATOM      5  C   UNL     1      53.876  33.690   5.964  0.00  0.00    -0.092 A 
ATOM      6  C   UNL     1      53.262  34.453   6.953  0.00  0.00    +0.028 A 
ATOM      7  C   UNL     1      51.899  34.373   7.132  0.00  0.00    -0.006 A 
ATOM      8  C   UNL     1      51.135  33.535   6.330  0.00  0.00    +0.012 A 
ATOM      9  C   UNL     1      51.714  32.777   5.354  0.00  0.00    +0.036 A 
ATOM     10  C   UNL     1      53.100  32.835   5.147  0.00  0.00    +0.087 A 
ATOM     11  N   UNL     1      53.905  32.204   4.270  0.00  0.00    -0.493 NA
ATOM     12  C   UNL     1      55.167  32.544   4.406  0.00  0.00    +0.194 A 
ATOM     13  C   UNL     1      56.422  32.171   3.732  0.00  0.00    -0.054 A 
ATOM     14  C   UNL     1      56.439  31.254   2.685  0.00  0.00    +0.092 A 
ATOM     15  C   UNL     1      57.635  30.930   2.081  0.00  0.00    -0.006 A 
ATOM     16  C   UNL     1      58.817  31.516   2.513  0.00  0.00    +0.064 A 
ATOM     17  C   UNL     1      58.813  32.425   3.547  0.00  0.00    -0.022 A 
ATOM     18  C   UNL     1      57.618  32.766   4.173  0.00  0.00    +0.157 A 
ENDROOT
TORSDOF 0
ENDMDL
MODEL 5
REMARK VINA RESULT:      -5.2      5.617      7.630
REMARK  Name = ZINC01642327
REMARK  1 active torsions:
REMARK  status: ('A' for Active; 'I' for Inactive)
REMARK    1  A    between atoms: C1_1  and  N1_2
REMARK                            x       y       z     vdW  Elec       q    Type
REMARK                         _______ _______ _______ _____ _____    ______ ____
ROOT
ATOM      1  C   UNL     1      45.382  17.081  19.534  0.00  0.00    +0.325 C 
ATOM      2  N   UNL     1      46.680  17.065  18.856  0.00  0.00    -0.480 N 
ATOM      3  C   UNL     1      47.458  18.157  18.929  0.00  0.00    +0.392 A 
ATOM      4  C   UNL     1      48.685  18.211  18.324  0.00  0.00    -0.235 A 
ATOM      5  C   UNL     1      49.760  19.203  18.202  0.00  0.00    -0.092 A 
ATOM      6  C   UNL     1      49.946  20.502  18.667  0.00  0.00    +0.028 A 
ATOM      7  C   UNL     1      51.107  21.177  18.364  0.00  0.00    -0.006 A 
ATOM      8  C   UNL     1      52.093  20.568  17.597  0.00  0.00    +0.012 A 
ATOM      9  C   UNL     1      51.933  19.296  17.130  0.00  0.00    +0.036 A 
ATOM     10  C   UNL     1      50.761  18.581  17.421  0.00  0.00    +0.087 A 
ATOM     11  N   UNL     1      50.362  17.338  17.088  0.00  0.00    -0.493 NA
ATOM     12  C   UNL     1      49.175  17.043  17.569  0.00  0.00    +0.194 A 
ATOM     13  C   UNL     1      48.294  15.865  17.512  0.00  0.00    -0.054 A 
ATOM     14  C   UNL     1      48.667  14.712  16.825  0.00  0.00    +0.092 A 
ATOM     15  C   UNL     1      47.813  13.630  16.794  0.00  0.00    -0.006 A 
ATOM     16  C   UNL     1      46.589  13.687  17.445  0.00  0.00    +0.064 A 
ATOM     17  C   UNL     1      46.209  14.820  18.129  0.00  0.00    -0.022 A 
ATOM     18  C   UNL     1      47.054  15.926  18.172  0.00  0.00    +0.157 A 
ENDROOT
TORSDOF 0
ENDMDL
MODEL 6
REMARK VINA RESULT:      -5.2      3.838      6.306
REMARK  Name = ZINC01642327
REMARK  1 active torsions:
REMARK  status: ('A' for Active; 'I' for Inactive)
REMARK    1  A    between atoms: C1_1  and  N1_2
REMARK                            x       y       z     vdW  Elec       q    Type
REMARK                         _______ _______ _______ _____ _____    ______ ____
ROOT
ATOM      1  C   UNL     1      50.455  20.207  19.092  0.00  0.00    +0.325 C 
ATOM      2  N   UNL     1      49.083  19.754  18.847  0.00  0.00    -0.480 N 
ATOM      3  C   UNL     1      48.068  20.577  19.159  0.00  0.00    +0.392 A 
ATOM      4  C   UNL     1      46.762  20.221  18.951  0.00  0.00    -0.235 A 
ATOM      5  C   UNL     1      45.451  20.845  19.166  0.00  0.00    -0.092 A 
ATOM      6  C   UNL     1      45.025  22.069  19.674  0.00  0.00    +0.028 A 
ATOM      7  C   UNL     1      43.679  22.351  19.739  0.00  0.00    -0.006 A 
ATOM      8  C   UNL     1      42.745  21.421  19.300  0.00  0.00    +0.012 A 
ATOM      9  C   UNL     1      43.139  20.214  18.799  0.00  0.00    +0.036 A 
ATOM     10  C   UNL     1      44.503  19.896  18.719  0.00  0.00    +0.087 A 
ATOM     11  N   UNL     1      45.145  18.798  18.274  0.00  0.00    -0.493 NA
ATOM     12  C   UNL     1      46.451  18.902  18.372  0.00  0.00    +0.194 A 
ATOM     13  C   UNL     1      47.590  18.029  18.044  0.00  0.00    -0.054 A 
ATOM     14  C   UNL     1      47.400  16.764  17.492  0.00  0.00    +0.092 A 
ATOM     15  C   UNL     1      48.493  15.976  17.200  0.00  0.00    -0.006 A 
ATOM     16  C   UNL     1      49.777  16.440  17.452  0.00  0.00    +0.064 A 
ATOM     17  C   UNL     1      49.978  17.689  17.996  0.00  0.00    -0.022 A 
ATOM     18  C   UNL     1      48.890  18.502  18.302  0.00  0.00    +0.157 A 
ENDROOT
TORSDOF 0
ENDMDL
MODEL 7
REMARK VINA RESULT:      -5.2      4.302      5.835
REMARK  Name = ZINC01642327
REMARK  1 active torsions:
REMARK  status: ('A' for Active; 'I' for Inactive)
REMARK    1  A    between atoms: C1_1  and  N1_2
REMARK                            x       y       z     vdW  Elec       q    Type
REMARK                         _______ _______ _______ _____ _____    ______ ____
ROOT
ATOM      1  C   UNL     1      45.647  16.612  19.112  0.00  0.00    +0.325 C 
ATOM      2  N   UNL     1      46.432  17.848  19.065  0.00  0.00    -0.480 N 
ATOM      3  C   UNL     1      47.761  17.759  18.896  0.00  0.00    +0.392 A 
ATOM      4  C   UNL     1      48.556  18.873  18.837  0.00  0.00    -0.235 A 
ATOM      5  C   UNL     1      49.990  19.139  18.669  0.00  0.00    -0.092 A 
ATOM      6  C   UNL     1      51.117  18.339  18.499  0.00  0.00    +0.028 A 
ATOM      7  C   UNL     1      52.356  18.925  18.366  0.00  0.00    -0.006 A 
ATOM      8  C   UNL     1      52.487  20.307  18.400  0.00  0.00    +0.012 A 
ATOM      9  C   UNL     1      51.397  21.111  18.565  0.00  0.00    +0.036 A 
ATOM     10  C   UNL     1      50.120  20.546  18.703  0.00  0.00    +0.087 A 
ATOM     11  N   UNL     1      48.905  21.103  18.875  0.00  0.00    -0.493 NA
ATOM     12  C   UNL     1      47.946  20.209  18.962  0.00  0.00    +0.194 A 
ATOM     13  C   UNL     1      46.487  20.265  19.145  0.00  0.00    -0.054 A 
ATOM     14  C   UNL     1      45.817  21.479  19.272  0.00  0.00    +0.092 A 
ATOM     15  C   UNL     1      44.449  21.489  19.443  0.00  0.00    -0.006 A 
ATOM     16  C   UNL     1      43.742  20.296  19.488  0.00  0.00    +0.064 A 
ATOM     17  C   UNL     1      44.392  19.088  19.363  0.00  0.00    -0.022 A 
ATOM     18  C   UNL     1      45.773  19.053  19.191  0.00  0.00    +0.157 A 
ENDROOT
TORSDOF 0
ENDMDL
MODEL 8
REMARK VINA RESULT:      -5.2      5.277      7.295
REMARK  Name = ZINC01642327
REMARK  1 active torsions:
REMARK  status: ('A' for Active; 'I' for Inactive)
REMARK    1  A    between atoms: C1_1  and  N1_2
REMARK                            x       y       z     vdW  Elec       q    Type
REMARK                         _______ _______ _______ _____ _____    ______ ____
ROOT
ATOM      1  C   UNL     1      47.602  14.249  17.283  0.00  0.00    +0.325 C 
ATOM      2  N   UNL     1      47.869  15.610  17.755  0.00  0.00    -0.480 N 
ATOM      3  C   UNL     1      48.929  16.267  17.255  0.00  0.00    +0.392 A 
ATOM      4  C   UNL     1      49.236  17.543  17.646  0.00  0.00    -0.235 A 
ATOM      5  C   UNL     1      50.277  18.525  17.321  0.00  0.00    -0.092 A 
ATOM      6  C   UNL     1      51.379  18.533  16.470  0.00  0.00    +0.028 A 
ATOM      7  C   UNL     1      52.179  19.652  16.399  0.00  0.00    -0.006 A 
ATOM      8  C   UNL     1      51.893  20.770  17.172  0.00  0.00    +0.012 A 
ATOM      9  C   UNL     1      50.819  20.785  18.013  0.00  0.00    +0.036 A 
ATOM     10  C   UNL     1      49.984  19.662  18.109  0.00  0.00    +0.087 A 
ATOM     11  N   UNL     1      48.882  19.422  18.847  0.00  0.00    -0.493 NA
ATOM     12  C   UNL     1      48.386  18.223  18.640  0.00  0.00    +0.194 A 
ATOM     13  C   UNL     1      47.234  17.471  19.164  0.00  0.00    -0.054 A 
ATOM     14  C   UNL     1      46.372  18.026  20.106  0.00  0.00    +0.092 A 
ATOM     15  C   UNL     1      45.304  17.288  20.572  0.00  0.00    -0.006 A 
ATOM     16  C   UNL     1      45.088  16.000  20.105  0.00  0.00    +0.064 A 
ATOM     17  C   UNL     1      45.933  15.439  19.172  0.00  0.00    -0.022 A 
ATOM     18  C   UNL     1      47.019  16.164  18.688  0.00  0.00    +0.157 A 
ENDROOT
TORSDOF 0
ENDMDL
MODEL 9
REMARK VINA RESULT:      -5.2      5.289      7.525
REMARK  Name = ZINC01642327
REMARK  1 active torsions:
REMARK  status: ('A' for Active; 'I' for Inactive)
REMARK    1  A    between atoms: C1_1  and  N1_2
REMARK                            x       y       z     vdW  Elec       q    Type
REMARK                         _______ _______ _______ _____ _____    ______ ____
ROOT
ATOM      1  C   UNL     1      50.016  16.272  17.295  0.00  0.00    +0.325 C 
ATOM      2  N   UNL     1      49.802  17.587  17.905  0.00  0.00    -0.480 N 
ATOM      3  C   UNL     1      48.908  17.696  18.901  0.00  0.00    +0.392 A 
ATOM      4  C   UNL     1      48.661  18.892  19.521  0.00  0.00    -0.235 A 
ATOM      5  C   UNL     1      47.786  19.360  20.603  0.00  0.00    -0.092 A 
ATOM      6  C   UNL     1      46.850  18.750  21.433  0.00  0.00    +0.028 A 
ATOM      7  C   UNL     1      46.182  19.499  22.376  0.00  0.00    -0.006 A 
ATOM      8  C   UNL     1      46.437  20.859  22.502  0.00  0.00    +0.012 A 
ATOM      9  C   UNL     1      47.350  21.478  21.699  0.00  0.00    +0.036 A 
ATOM     10  C   UNL     1      48.048  20.744  20.728  0.00  0.00    +0.087 A 
ATOM     11  N   UNL     1      48.981  21.106  19.827  0.00  0.00    -0.493 NA
ATOM     12  C   UNL     1      49.390  20.098  19.089  0.00  0.00    +0.194 A 
ATOM     13  C   UNL     1      50.361  19.939  17.995  0.00  0.00    -0.054 A 
ATOM     14  C   UNL     1      51.100  21.018  17.516  0.00  0.00    +0.092 A 
ATOM     15  C   UNL     1      51.999  20.827  16.489  0.00  0.00    -0.006 A 
ATOM     16  C   UNL     1      52.169  19.567  15.933  0.00  0.00    +0.064 A 
ATOM     17  C   UNL     1      51.445  18.491  16.398  0.00  0.00    -0.022 A 
ATOM     18  C   UNL     1      50.530  18.660  17.434  0.00  0.00    +0.157 A 
ENDROOT
TORSDOF 0
ENDMDL
