MODEL 1
REMARK VINA RESULT:      -5.9      0.000      0.000
REMARK  Name = ZINC95485951
REMARK  7 active torsions:
REMARK  status: ('A' for Active; 'I' for Inactive)
REMARK    1  A    between atoms: C1_1  and  C2_2
REMARK    2  A    between atoms: C4_4  and  O4_23
REMARK    3  A    between atoms: C12_12  and  C17_20
REMARK    4  A    between atoms: C13_14  and  C16_18
REMARK    5  A    between atoms: C13_14  and  O2_19
REMARK    6  A    between atoms: C17_20  and  C18_22
REMARK    7  A    between atoms: O4_23  and  C19_24
REMARK                            x       y       z     vdW  Elec       q    Type
REMARK                         _______ _______ _______ _____ _____    ______ ____
ROOT
ATOM      1  C   UNL     1      45.511  13.835  20.510  0.00  0.00    +0.106 C 
ATOM      2  C   UNL     1      45.935  14.679  19.337  0.00  0.00    -0.015 A 
ATOM      3  C   UNL     1      46.679  14.134  18.338  0.00  0.00    -0.064 A 
ATOM      4  C   UNL     1      47.082  14.902  17.241  0.00  0.00    +0.152 A 
ATOM      7  C   UNL     1      46.734  16.232  17.147  0.00  0.00    -0.030 A 
ATOM      8  C   UNL     1      45.969  16.822  18.164  0.00  0.00    +0.021 A 
ATOM      9  C   UNL     1      45.602  18.179  18.099  0.00  0.00    +0.017 A 
ATOM     10  C   UNL     1      44.846  18.736  19.083  0.00  0.00    -0.016 A 
ATOM     11  C   UNL     1      44.486  20.195  18.975  0.00  0.00    +0.030 C 
ATOM     15  C   UNL     1      43.247  20.521  19.804  0.00  0.00    +0.157 C 
ATOM     18  C   UNL     1      42.037  19.787  19.225  0.00  0.00    +0.033 C 
ATOM     19  C   UNL     1      43.471  20.074  21.254  0.00  0.00    +0.018 C 
ATOM     20  C   UNL     1      43.611  18.567  21.247  0.00  0.00    +0.409 C 
ATOM     21  O   UNL     1      43.066  17.882  22.087  0.00  0.00    -0.449 OA
ATOM     22  C   UNL     1      44.432  17.959  20.182  0.00  0.00    -0.172 A 
ATOM     23  C   UNL     1      44.784  16.619  20.280  0.00  0.00    +0.126 A 
ATOM     24  C   UNL     1      45.558  16.033  19.270  0.00  0.00    -0.097 A 
ENDROOT
BRANCH  11  12
ATOM     12  C   UNL     1      45.642  21.027  19.469  0.00  0.00    +0.372 C 
ATOM     13  C   UNL     1      46.789  20.368  20.191  0.00  0.00    +0.079 C 
ATOM     14  O   UNL     1      45.650  22.219  19.286  0.00  0.00    -0.447 OA
ENDBRANCH  11  12
BRANCH   4   5
ATOM      5  O   UNL     1      47.823  14.331  16.257  0.00  0.00    -0.313 OA
ATOM      6  C   UNL     1      47.677  12.922  16.070  0.00  0.00    +0.244 C 
ENDBRANCH   4   5
BRANCH  15  16
ATOM     16  O   UNL     1      43.010  21.931  19.772  0.00  0.00    -0.550 OA
ATOM     17  H   UNL     1      43.744  22.461  20.110  0.00  0.00    +0.388 HD
ENDBRANCH  15  16
TORSDOF 3
ENDMDL
MODEL 2
REMARK VINA RESULT:      -5.8      4.006      7.544
REMARK  Name = ZINC95485951
REMARK  7 active torsions:
REMARK  status: ('A' for Active; 'I' for Inactive)
REMARK    1  A    between atoms: C1_1  and  C2_2
REMARK    2  A    between atoms: C4_4  and  O4_23
REMARK    3  A    between atoms: C12_12  and  C17_20
REMARK    4  A    between atoms: C13_14  and  C16_18
REMARK    5  A    between atoms: C13_14  and  O2_19
REMARK    6  A    between atoms: C17_20  and  C18_22
REMARK    7  A    between atoms: O4_23  and  C19_24
REMARK                            x       y       z     vdW  Elec       q    Type
REMARK                         _______ _______ _______ _____ _____    ______ ____
ROOT
ATOM      1  C   UNL     1      47.960  22.396  22.408  0.00  0.00    +0.106 C 
ATOM      2  C   UNL     1      47.338  21.487  21.380  0.00  0.00    -0.015 A 
ATOM      3  C   UNL     1      46.001  21.239  21.409  0.00  0.00    -0.064 A 
ATOM      4  C   UNL     1      45.406  20.399  20.463  0.00  0.00    +0.152 A 
ATOM      7  C   UNL     1      46.162  19.801  19.478  0.00  0.00    -0.030 A 
ATOM      8  C   UNL     1      47.543  20.037  19.425  0.00  0.00    +0.021 A 
ATOM      9  C   UNL     1      48.342  19.437  18.434  0.00  0.00    +0.017 A 
ATOM     10  C   UNL     1      49.679  19.686  18.382  0.00  0.00    -0.016 A 
ATOM     11  C   UNL     1      50.495  19.014  17.310  0.00  0.00    +0.030 C 
ATOM     15  C   UNL     1      51.791  19.774  17.043  0.00  0.00    +0.157 C 
ATOM     18  C   UNL     1      51.464  21.151  16.464  0.00  0.00    +0.033 C 
ATOM     19  C   UNL     1      52.564  19.941  18.356  0.00  0.00    +0.018 C 
ATOM     20  C   UNL     1      51.725  20.809  19.270  0.00  0.00    +0.409 C 
ATOM     21  O   UNL     1      52.227  21.695  19.929  0.00  0.00    -0.449 OA
ATOM     22  C   UNL     1      50.275  20.541  19.329  0.00  0.00    -0.172 A 
ATOM     23  C   UNL     1      49.516  21.142  20.324  0.00  0.00    +0.126 A 
ATOM     24  C   UNL     1      48.138  20.897  20.384  0.00  0.00    -0.097 A 
ENDROOT
BRANCH  11  12
ATOM     12  C   UNL     1      50.829  17.611  17.750  0.00  0.00    +0.372 C 
ATOM     13  C   UNL     1      50.582  17.190  19.176  0.00  0.00    +0.079 C 
ATOM     14  O   UNL     1      51.294  16.825  16.961  0.00  0.00    -0.447 OA
ENDBRANCH  11  12
BRANCH   4   5
ATOM      5  O   UNL     1      44.069  20.170  20.514  0.00  0.00    -0.313 OA
ATOM      6  C   UNL     1      43.328  20.383  19.311  0.00  0.00    +0.244 C 
ENDBRANCH   4   5
BRANCH  15  16
ATOM     16  O   UNL     1      52.588  19.043  16.109  0.00  0.00    -0.550 OA
ATOM     17  H   UNL     1      53.044  18.282  16.493  0.00  0.00    +0.388 HD
ENDBRANCH  15  16
TORSDOF 3
ENDMDL
MODEL 3
REMARK VINA RESULT:      -5.7      4.146      6.722
REMARK  Name = ZINC95485951
REMARK  7 active torsions:
REMARK  status: ('A' for Active; 'I' for Inactive)
REMARK    1  A    between atoms: C1_1  and  C2_2
REMARK    2  A    between atoms: C4_4  and  O4_23
REMARK    3  A    between atoms: C12_12  and  C17_20
REMARK    4  A    between atoms: C13_14  and  C16_18
REMARK    5  A    between atoms: C13_14  and  O2_19
REMARK    6  A    between atoms: C17_20  and  C18_22
REMARK    7  A    between atoms: O4_23  and  C19_24
REMARK                            x       y       z     vdW  Elec       q    Type
REMARK                         _______ _______ _______ _____ _____    ______ ____
ROOT
ATOM      1  C   UNL     1      46.290  17.406  21.580  0.00  0.00    +0.106 C 
ATOM      2  C   UNL     1      46.226  18.541  20.592  0.00  0.00    -0.015 A 
ATOM      3  C   UNL     1      45.024  18.980  20.134  0.00  0.00    -0.064 A 
ATOM      4  C   UNL     1      44.945  20.033  19.217  0.00  0.00    +0.152 A 
ATOM      7  C   UNL     1      46.087  20.652  18.756  0.00  0.00    -0.030 A 
ATOM      8  C   UNL     1      47.341  20.219  19.210  0.00  0.00    +0.021 A 
ATOM      9  C   UNL     1      48.525  20.828  18.755  0.00  0.00    +0.017 A 
ATOM     10  C   UNL     1      49.736  20.410  19.214  0.00  0.00    -0.016 A 
ATOM     11  C   UNL     1      50.976  21.086  18.690  0.00  0.00    +0.030 C 
ATOM     15  C   UNL     1      52.149  20.909  19.650  0.00  0.00    +0.157 C 
ATOM     18  C   UNL     1      51.847  21.634  20.962  0.00  0.00    +0.033 C 
ATOM     19  C   UNL     1      52.362  19.416  19.927  0.00  0.00    +0.018 C 
ATOM     20  C   UNL     1      51.128  18.908  20.642  0.00  0.00    +0.409 C 
ATOM     21  O   UNL     1      51.217  18.158  21.592  0.00  0.00    -0.449 OA
ATOM     22  C   UNL     1      49.813  19.357  20.145  0.00  0.00    -0.172 A 
ATOM     23  C   UNL     1      48.664  18.730  20.608  0.00  0.00    +0.126 A 
ATOM     24  C   UNL     1      47.412  19.155  20.146  0.00  0.00    -0.097 A 
ENDROOT
BRANCH  11  12
ATOM     12  C   UNL     1      51.338  20.485  17.355  0.00  0.00    +0.372 C 
ATOM     13  C   UNL     1      50.919  19.076  17.025  0.00  0.00    +0.079 C 
ATOM     14  O   UNL     1      51.963  21.133  16.552  0.00  0.00    -0.447 OA
ENDBRANCH  11  12
BRANCH   4   5
ATOM      5  O   UNL     1      43.731  20.451  18.777  0.00  0.00    -0.313 OA
ATOM      6  C   UNL     1      42.586  19.981  19.491  0.00  0.00    +0.244 C 
ENDBRANCH   4   5
BRANCH  15  16
ATOM     16  O   UNL     1      53.331  21.458  19.064  0.00  0.00    -0.550 OA
ATOM     17  H   UNL     1      53.328  21.456  18.097  0.00  0.00    +0.388 HD
ENDBRANCH  15  16
TORSDOF 3
ENDMDL
MODEL 4
REMARK VINA RESULT:      -5.7      3.291      4.264
REMARK  Name = ZINC95485951
REMARK  7 active torsions:
REMARK  status: ('A' for Active; 'I' for Inactive)
REMARK    1  A    between atoms: C1_1  and  C2_2
REMARK    2  A    between atoms: C4_4  and  O4_23
REMARK    3  A    between atoms: C12_12  and  C17_20
REMARK    4  A    between atoms: C13_14  and  C16_18
REMARK    5  A    between atoms: C13_14  and  O2_19
REMARK    6  A    between atoms: C17_20  and  C18_22
REMARK    7  A    between atoms: O4_23  and  C19_24
REMARK                            x       y       z     vdW  Elec       q    Type
REMARK                         _______ _______ _______ _____ _____    ______ ____
ROOT
ATOM      1  C   UNL     1      49.852  16.679  20.119  0.00  0.00    +0.106 C 
ATOM      2  C   UNL     1      49.949  18.045  19.491  0.00  0.00    -0.015 A 
ATOM      3  C   UNL     1      51.075  18.410  18.823  0.00  0.00    -0.064 A 
ATOM      4  C   UNL     1      51.183  19.673  18.233  0.00  0.00    +0.152 A 
ATOM      7  C   UNL     1      50.149  20.580  18.317  0.00  0.00    -0.030 A 
ATOM      8  C   UNL     1      48.976  20.232  19.002  0.00  0.00    +0.021 A 
ATOM      9  C   UNL     1      47.905  21.138  19.108  0.00  0.00    +0.017 A 
ATOM     10  C   UNL     1      46.765  20.784  19.762  0.00  0.00    -0.016 A 
ATOM     11  C   UNL     1      45.649  21.790  19.859  0.00  0.00    +0.030 C 
ATOM     15  C   UNL     1      44.308  21.106  20.111  0.00  0.00    +0.157 C 
ATOM     18  C   UNL     1      43.940  20.245  18.903  0.00  0.00    +0.033 C 
ATOM     19  C   UNL     1      44.415  20.220  21.358  0.00  0.00    +0.018 C 
ATOM     20  C   UNL     1      45.416  19.126  21.053  0.00  0.00    +0.409 C 
ATOM     21  O   UNL     1      45.207  17.976  21.378  0.00  0.00    -0.449 OA
ATOM     22  C   UNL     1      46.653  19.507  20.346  0.00  0.00    -0.172 A 
ATOM     23  C   UNL     1      47.696  18.593  20.265  0.00  0.00    +0.126 A 
ATOM     24  C   UNL     1      48.872  18.945  19.591  0.00  0.00    -0.097 A 
ENDROOT
BRANCH  11  12
ATOM     12  C   UNL     1      45.938  22.740  20.993  0.00  0.00    +0.372 C 
ATOM     13  C   UNL     1      47.040  22.430  21.973  0.00  0.00    +0.079 C 
ATOM     14  O   UNL     1      45.287  23.749  21.116  0.00  0.00    -0.447 OA
ENDBRANCH  11  12
BRANCH   4   5
ATOM      5  O   UNL     1      52.319  20.010  17.570  0.00  0.00    -0.313 OA
ATOM      6  C   UNL     1      52.181  20.398  16.202  0.00  0.00    +0.244 C 
ENDBRANCH   4   5
BRANCH  15  16
ATOM     16  O   UNL     1      43.299  22.097  20.315  0.00  0.00    -0.550 OA
ATOM     17  H   UNL     1      42.440  21.868  19.936  0.00  0.00    +0.388 HD
ENDBRANCH  15  16
TORSDOF 3
ENDMDL
MODEL 5
REMARK VINA RESULT:      -5.6     21.563     23.609
REMARK  Name = ZINC95485951
REMARK  7 active torsions:
REMARK  status: ('A' for Active; 'I' for Inactive)
REMARK    1  A    between atoms: C1_1  and  C2_2
REMARK    2  A    between atoms: C4_4  and  O4_23
REMARK    3  A    between atoms: C12_12  and  C17_20
REMARK    4  A    between atoms: C13_14  and  C16_18
REMARK    5  A    between atoms: C13_14  and  O2_19
REMARK    6  A    between atoms: C17_20  and  C18_22
REMARK    7  A    between atoms: O4_23  and  C19_24
REMARK                            x       y       z     vdW  Elec       q    Type
REMARK                         _______ _______ _______ _____ _____    ______ ____
ROOT
ATOM      1  C   UNL     1      58.355  33.896   5.632  0.00  0.00    +0.106 C 
ATOM      2  C   UNL     1      57.761  32.890   4.682  0.00  0.00    -0.015 A 
ATOM      3  C   UNL     1      58.562  31.985   4.058  0.00  0.00    -0.064 A 
ATOM      4  C   UNL     1      58.028  31.043   3.173  0.00  0.00    +0.152 A 
ATOM      7  C   UNL     1      56.675  31.009   2.912  0.00  0.00    -0.030 A 
ATOM      8  C   UNL     1      55.825  31.932   3.540  0.00  0.00    +0.021 A 
ATOM      9  C   UNL     1      54.441  31.925   3.290  0.00  0.00    +0.017 A 
ATOM     10  C   UNL     1      53.623  32.815   3.917  0.00  0.00    -0.016 A 
ATOM     11  C   UNL     1      52.149  32.776   3.611  0.00  0.00    +0.030 C 
ATOM     15  C   UNL     1      51.335  33.412   4.733  0.00  0.00    +0.157 C 
ATOM     18  C   UNL     1      51.480  32.577   6.005  0.00  0.00    +0.033 C 
ATOM     19  C   UNL     1      51.847  34.834   4.993  0.00  0.00    +0.018 C 
ATOM     20  C   UNL     1      53.271  34.718   5.494  0.00  0.00    +0.409 C 
ATOM     21  O   UNL     1      53.667  35.392   6.422  0.00  0.00    -0.449 OA
ATOM     22  C   UNL     1      54.161  33.756   4.816  0.00  0.00    -0.172 A 
ATOM     23  C   UNL     1      55.524  33.793   5.077  0.00  0.00    +0.126 A 
ATOM     24  C   UNL     1      56.374  32.879   4.442  0.00  0.00    -0.097 A 
ENDROOT
BRANCH  11  12
ATOM     12  C   UNL     1      51.892  33.528   2.329  0.00  0.00    +0.372 C 
ATOM     13  C   UNL     1      52.951  34.440   1.765  0.00  0.00    +0.079 C 
ATOM     14  O   UNL     1      50.838  33.399   1.755  0.00  0.00    -0.447 OA
ENDBRANCH  11  12
BRANCH   4   5
ATOM      5  O   UNL     1      58.851  30.150   2.565  0.00  0.00    -0.313 OA
ATOM      6  C   UNL     1      58.472  28.774   2.624  0.00  0.00    +0.244 C 
ENDBRANCH   4   5
BRANCH  15  16
ATOM     16  O   UNL     1      49.958  33.464   4.353  0.00  0.00    -0.550 OA
ATOM     17  H   UNL     1      49.497  32.618   4.428  0.00  0.00    +0.388 HD
ENDBRANCH  15  16
TORSDOF 3
ENDMDL
MODEL 6
REMARK VINA RESULT:      -5.5      2.191      6.620
REMARK  Name = ZINC95485951
REMARK  7 active torsions:
REMARK  status: ('A' for Active; 'I' for Inactive)
REMARK    1  A    between atoms: C1_1  and  C2_2
REMARK    2  A    between atoms: C4_4  and  O4_23
REMARK    3  A    between atoms: C12_12  and  C17_20
REMARK    4  A    between atoms: C13_14  and  C16_18
REMARK    5  A    between atoms: C13_14  and  O2_19
REMARK    6  A    between atoms: C17_20  and  C18_22
REMARK    7  A    between atoms: O4_23  and  C19_24
REMARK                            x       y       z     vdW  Elec       q    Type
REMARK                         _______ _______ _______ _____ _____    ______ ____
ROOT
ATOM      1  C   UNL     1      45.293  23.262  20.401  0.00  0.00    +0.106 C 
ATOM      2  C   UNL     1      44.304  22.282  19.826  0.00  0.00    -0.015 A 
ATOM      3  C   UNL     1      43.040  22.684  19.528  0.00  0.00    -0.064 A 
ATOM      4  C   UNL     1      42.109  21.788  18.993  0.00  0.00    +0.152 A 
ATOM      7  C   UNL     1      42.451  20.474  18.756  0.00  0.00    -0.030 A 
ATOM      8  C   UNL     1      43.748  20.031  19.056  0.00  0.00    +0.021 A 
ATOM      9  C   UNL     1      44.126  18.695  18.829  0.00  0.00    +0.017 A 
ATOM     10  C   UNL     1      45.391  18.280  19.109  0.00  0.00    -0.016 A 
ATOM     11  C   UNL     1      45.747  16.838  18.859  0.00  0.00    +0.030 C 
ATOM     15  C   UNL     1      47.254  16.661  18.697  0.00  0.00    +0.157 C 
ATOM     18  C   UNL     1      47.721  17.391  17.437  0.00  0.00    +0.033 C 
ATOM     19  C   UNL     1      47.971  17.242  19.922  0.00  0.00    +0.018 C 
ATOM     20  C   UNL     1      47.702  18.732  19.939  0.00  0.00    +0.409 C 
ATOM     21  O   UNL     1      48.585  19.526  20.190  0.00  0.00    -0.449 OA
ATOM     22  C   UNL     1      46.331  19.186  19.637  0.00  0.00    -0.172 A 
ATOM     23  C   UNL     1      45.986  20.509  19.880  0.00  0.00    +0.126 A 
ATOM     24  C   UNL     1      44.689  20.949  19.591  0.00  0.00    -0.097 A 
ENDROOT
BRANCH  11  12
ATOM     12  C   UNL     1      45.276  16.004  20.023  0.00  0.00    +0.372 C 
ATOM     13  C   UNL     1      44.814  16.675  21.291  0.00  0.00    +0.079 C 
ATOM     14  O   UNL     1      45.268  14.800  19.940  0.00  0.00    -0.447 OA
ENDBRANCH  11  12
BRANCH   4   5
ATOM      5  O   UNL     1      40.854  22.217  18.703  0.00  0.00    -0.313 OA
ATOM      6  C   UNL     1      39.885  21.217  18.379  0.00  0.00    +0.244 C 
ENDBRANCH   4   5
BRANCH  15  16
ATOM     16  O   UNL     1      47.560  15.269  18.581  0.00  0.00    -0.550 OA
ATOM     17  H   UNL     1      48.474  15.088  18.322  0.00  0.00    +0.388 HD
ENDBRANCH  15  16
TORSDOF 3
ENDMDL
MODEL 7
REMARK VINA RESULT:      -5.4      3.856      7.447
REMARK  Name = ZINC95485951
REMARK  7 active torsions:
REMARK  status: ('A' for Active; 'I' for Inactive)
REMARK    1  A    between atoms: C1_1  and  C2_2
REMARK    2  A    between atoms: C4_4  and  O4_23
REMARK    3  A    between atoms: C12_12  and  C17_20
REMARK    4  A    between atoms: C13_14  and  C16_18
REMARK    5  A    between atoms: C13_14  and  O2_19
REMARK    6  A    between atoms: C17_20  and  C18_22
REMARK    7  A    between atoms: O4_23  and  C19_24
REMARK                            x       y       z     vdW  Elec       q    Type
REMARK                         _______ _______ _______ _____ _____    ______ ____
ROOT
ATOM      1  C   UNL     1      44.746  19.284  18.380  0.00  0.00    +0.106 C 
ATOM      2  C   UNL     1      45.678  20.126  19.213  0.00  0.00    -0.015 A 
ATOM      3  C   UNL     1      45.181  21.116  20.001  0.00  0.00    -0.064 A 
ATOM      4  C   UNL     1      46.030  21.908  20.781  0.00  0.00    +0.152 A 
ATOM      7  C   UNL     1      47.392  21.704  20.768  0.00  0.00    -0.030 A 
ATOM      8  C   UNL     1      47.933  20.691  19.963  0.00  0.00    +0.021 A 
ATOM      9  C   UNL     1      49.321  20.460  19.925  0.00  0.00    +0.017 A 
ATOM     10  C   UNL     1      49.833  19.465  19.152  0.00  0.00    -0.016 A 
ATOM     11  C   UNL     1      51.326  19.262  19.136  0.00  0.00    +0.030 C 
ATOM     15  C   UNL     1      51.687  17.846  18.695  0.00  0.00    +0.157 C 
ATOM     18  C   UNL     1      51.179  16.845  19.733  0.00  0.00    +0.033 C 
ATOM     19  C   UNL     1      51.036  17.553  17.338  0.00  0.00    +0.018 C 
ATOM     20  C   UNL     1      49.536  17.582  17.539  0.00  0.00    +0.409 C 
ATOM     21  O   UNL     1      48.818  16.746  17.031  0.00  0.00    -0.449 OA
ATOM     22  C   UNL     1      48.977  18.661  18.375  0.00  0.00    -0.172 A 
ATOM     23  C   UNL     1      47.603  18.868  18.385  0.00  0.00    +0.126 A 
ATOM     24  C   UNL     1      47.064  19.887  19.180  0.00  0.00    -0.097 A 
ENDROOT
BRANCH  11  12
ATOM     12  C   UNL     1      51.947  20.249  18.180  0.00  0.00    +0.372 C 
ATOM     13  C   UNL     1      51.073  21.044  17.245  0.00  0.00    +0.079 C 
ATOM     14  O   UNL     1      53.145  20.401  18.163  0.00  0.00    -0.447 OA
ENDBRANCH  11  12
BRANCH   4   5
ATOM      5  O   UNL     1      45.506  22.888  21.561  0.00  0.00    -0.313 OA
ATOM      6  C   UNL     1      45.464  24.205  21.005  0.00  0.00    +0.244 C 
ENDBRANCH   4   5
BRANCH  15  16
ATOM     16  O   UNL     1      53.107  17.732  18.578  0.00  0.00    -0.550 OA
ATOM     17  H   UNL     1      53.598  18.290  19.195  0.00  0.00    +0.388 HD
ENDBRANCH  15  16
TORSDOF 3
ENDMDL
MODEL 8
REMARK VINA RESULT:      -5.1      3.069      6.254
REMARK  Name = ZINC95485951
REMARK  7 active torsions:
REMARK  status: ('A' for Active; 'I' for Inactive)
REMARK    1  A    between atoms: C1_1  and  C2_2
REMARK    2  A    between atoms: C4_4  and  O4_23
REMARK    3  A    between atoms: C12_12  and  C17_20
REMARK    4  A    between atoms: C13_14  and  C16_18
REMARK    5  A    between atoms: C13_14  and  O2_19
REMARK    6  A    between atoms: C17_20  and  C18_22
REMARK    7  A    between atoms: O4_23  and  C19_24
REMARK                            x       y       z     vdW  Elec       q    Type
REMARK                         _______ _______ _______ _____ _____    ______ ____
ROOT
ATOM      1  C   UNL     1      47.930  21.155  20.210  0.00  0.00    +0.106 C 
ATOM      2  C   UNL     1      48.827  20.319  19.334  0.00  0.00    -0.015 A 
ATOM      3  C   UNL     1      49.935  20.869  18.771  0.00  0.00    -0.064 A 
ATOM      4  C   UNL     1      50.780  20.109  17.956  0.00  0.00    +0.152 A 
ATOM      7  C   UNL     1      50.507  18.782  17.702  0.00  0.00    -0.030 A 
ATOM      8  C   UNL     1      49.369  18.189  18.268  0.00  0.00    +0.021 A 
ATOM      9  C   UNL     1      49.062  16.837  18.025  0.00  0.00    +0.017 A 
ATOM     10  C   UNL     1      47.964  16.267  18.592  0.00  0.00    -0.016 A 
ATOM     11  C   UNL     1      47.670  14.820  18.295  0.00  0.00    +0.030 C 
ATOM     15  C   UNL     1      46.785  14.203  19.375  0.00  0.00    +0.157 C 
ATOM     18  C   UNL     1      47.546  14.172  20.701  0.00  0.00    +0.033 C 
ATOM     19  C   UNL     1      45.513  15.044  19.534  0.00  0.00    +0.018 C 
ATOM     20  C   UNL     1      45.932  16.410  20.036  0.00  0.00    +0.409 C 
ATOM     21  O   UNL     1      45.312  16.973  20.913  0.00  0.00    -0.449 OA
ATOM     22  C   UNL     1      47.120  17.031  19.422  0.00  0.00    -0.172 A 
ATOM     23  C   UNL     1      47.392  18.369  19.675  0.00  0.00    +0.126 A 
ATOM     24  C   UNL     1      48.522  18.965  19.101  0.00  0.00    -0.097 A 
ENDROOT
BRANCH  11  12
ATOM     12  C   UNL     1      46.965  14.723  16.966  0.00  0.00    +0.372 C 
ATOM     13  C   UNL     1      46.442  15.969  16.298  0.00  0.00    +0.079 C 
ATOM     14  O   UNL     1      46.820  13.648  16.437  0.00  0.00    -0.447 OA
ENDBRANCH  11  12
BRANCH   4   5
ATOM      5  O   UNL     1      51.881  20.684  17.407  0.00  0.00    -0.313 OA
ATOM      6  C   UNL     1      52.100  20.465  16.012  0.00  0.00    +0.244 C 
ENDBRANCH   4   5
BRANCH  15  16
ATOM     16  O   UNL     1      46.432  12.871  18.997  0.00  0.00    -0.550 OA
ATOM     17  H   UNL     1      45.770  12.824  18.294  0.00  0.00    +0.388 HD
ENDBRANCH  15  16
TORSDOF 3
ENDMDL
MODEL 9
REMARK VINA RESULT:      -5.0      3.130      5.156
REMARK  Name = ZINC95485951
REMARK  7 active torsions:
REMARK  status: ('A' for Active; 'I' for Inactive)
REMARK    1  A    between atoms: C1_1  and  C2_2
REMARK    2  A    between atoms: C4_4  and  O4_23
REMARK    3  A    between atoms: C12_12  and  C17_20
REMARK    4  A    between atoms: C13_14  and  C16_18
REMARK    5  A    between atoms: C13_14  and  O2_19
REMARK    6  A    between atoms: C17_20  and  C18_22
REMARK    7  A    between atoms: O4_23  and  C19_24
REMARK                            x       y       z     vdW  Elec       q    Type
REMARK                         _______ _______ _______ _____ _____    ______ ____
ROOT
ATOM      1  C   UNL     1      50.297  21.148  17.977  0.00  0.00    +0.106 C 
ATOM      2  C   UNL     1      50.181  20.094  19.047  0.00  0.00    -0.015 A 
ATOM      3  C   UNL     1      51.274  19.375  19.416  0.00  0.00    -0.064 A 
ATOM      4  C   UNL     1      51.187  18.393  20.408  0.00  0.00    +0.152 A 
ATOM      7  C   UNL     1      49.988  18.131  21.036  0.00  0.00    -0.030 A 
ATOM      8  C   UNL     1      48.844  18.857  20.674  0.00  0.00    +0.021 A 
ATOM      9  C   UNL     1      47.605  18.610  21.294  0.00  0.00    +0.017 A 
ATOM     10  C   UNL     1      46.504  19.331  20.947  0.00  0.00    -0.016 A 
ATOM     11  C   UNL     1      45.198  19.024  21.630  0.00  0.00    +0.030 C 
ATOM     15  C   UNL     1      44.241  20.211  21.553  0.00  0.00    +0.157 C 
ATOM     18  C   UNL     1      44.819  21.384  22.345  0.00  0.00    +0.033 C 
ATOM     19  C   UNL     1      44.059  20.624  20.087  0.00  0.00    +0.018 C 
ATOM     20  C   UNL     1      45.401  21.107  19.581  0.00  0.00    +0.409 C 
ATOM     21  O   UNL     1      45.491  22.103  18.894  0.00  0.00    -0.449 OA
ATOM     22  C   UNL     1      46.596  20.327  19.955  0.00  0.00    -0.172 A 
ATOM     23  C   UNL     1      47.803  20.589  19.319  0.00  0.00    +0.126 A 
ATOM     24  C   UNL     1      48.943  19.857  19.672  0.00  0.00    -0.097 A 
ENDROOT
BRANCH  11  12
ATOM     12  C   UNL     1      44.559  17.833  20.963  0.00  0.00    +0.372 C 
ATOM     13  C   UNL     1      45.025  17.395  19.598  0.00  0.00    +0.079 C 
ATOM     14  O   UNL     1      43.676  17.229  21.521  0.00  0.00    -0.447 OA
ENDBRANCH  11  12
BRANCH   4   5
ATOM      5  O   UNL     1      52.295  17.691  20.758  0.00  0.00    -0.313 OA
ATOM      6  C   UNL     1      53.001  17.029  19.707  0.00  0.00    +0.244 C 
ENDBRANCH   4   5
BRANCH  15  16
ATOM     16  O   UNL     1      42.976  19.839  22.105  0.00  0.00    -0.550 OA
ATOM     17  H   UNL     1      43.031  19.164  22.793  0.00  0.00    +0.388 HD
ENDBRANCH  15  16
TORSDOF 3
ENDMDL
