MODEL 1
REMARK VINA RESULT:      -6.9      0.000      0.000
REMARK  Name = ZINC15121564
REMARK  9 active torsions:
REMARK  status: ('A' for Active; 'I' for Inactive)
REMARK    1  A    between atoms: C1_1  and  C2_2
REMARK    2  A    between atoms: C4_4  and  O3_28
REMARK    3  A    between atoms: C7_7  and  C8_8
REMARK    4  A    between atoms: C13_13  and  O1_14
REMARK    5  A    between atoms: O1_14  and  C14_15
REMARK    6  A    between atoms: C15_16  and  C19_22
REMARK    7  A    between atoms: C16_18  and  C18_21
REMARK    8  A    between atoms: C23_26  and  O2_27
REMARK    9  A    between atoms: O3_28  and  C24_29
REMARK                            x       y       z     vdW  Elec       q    Type
REMARK                         _______ _______ _______ _____ _____    ______ ____
ROOT
ATOM     16  C   UNL     1      44.070  18.664  21.065  0.00  0.00    -0.022 A 
ATOM     17  C   UNL     1      43.246  18.136  22.056  0.00  0.00    +0.072 A 
ATOM     18  C   UNL     1      43.453  16.850  22.505  0.00  0.00    +0.032 A 
ATOM     19  C   UNL     1      44.475  16.073  21.980  0.00  0.00    -0.078 A 
ATOM     20  C   UNL     1      45.300  16.585  21.000  0.00  0.00    -0.147 A 
ATOM     21  C   UNL     1      46.426  15.780  20.407  0.00  0.00    +0.230 C 
ATOM     22  N   UNL     1      46.241  14.349  20.685  0.00  0.00    -0.511 N 
ATOM     23  H   UNL     1      45.421  14.006  20.171  0.00  0.00    +0.432 HD
ATOM     24  H   UNL     1      47.076  13.833  20.382  0.00  0.00    +0.435 HD
ATOM     25  C   UNL     1      46.036  14.141  22.130  0.00  0.00    +0.171 C 
ATOM     26  C   UNL     1      46.119  12.647  22.448  0.00  0.00    +0.094 C 
ATOM     27  C   UNL     1      47.753  16.245  21.011  0.00  0.00    +0.101 C 
ATOM     28  C   UNL     1      44.652  14.670  22.505  0.00  0.00    +0.131 C 
ATOM     29  C   UNL     1      45.101  17.881  20.538  0.00  0.00    +0.134 A 
ENDROOT
BRANCH  16  15
ATOM      1  C   UNL     1      45.913  20.740  21.810  0.00  0.00    +0.097 C 
ATOM      2  C   UNL     1      44.736  21.053  20.924  0.00  0.00    +0.007 A 
ATOM      3  C   UNL     1      44.545  22.351  20.467  0.00  0.00    -0.099 A 
ATOM      4  C   UNL     1      43.479  22.667  19.655  0.00  0.00    +0.179 A 
ATOM      7  C   UNL     1      42.563  21.664  19.279  0.00  0.00    -0.109 A 
ATOM      8  C   UNL     1      42.752  20.338  19.735  0.00  0.00    +0.025 A 
ATOM      9  C   UNL     1      41.838  19.342  19.365  0.00  0.00    -0.026 A 
ATOM     10  C   UNL     1      40.781  19.652  18.562  0.00  0.00    +0.059 A 
ATOM     11  C   UNL     1      40.587  20.951  18.103  0.00  0.00    -0.033 A 
ATOM     12  C   UNL     1      41.462  21.957  18.450  0.00  0.00    +0.159 A 
ATOM     15  C   UNL     1      43.856  20.044  20.573  0.00  0.00    -0.115 A 
BRANCH   4   5
ATOM      5  O   UNL     1      43.309  23.942  19.218  0.00  0.00    -0.292 OA
ATOM      6  C   UNL     1      44.488  24.668  18.867  0.00  0.00    +0.248 C 
ENDBRANCH   4   5
BRANCH  12  13
ATOM     13  O   UNL     1      41.264  23.222  17.997  0.00  0.00    -0.479 OA
ATOM     14  H   UNL     1      42.078  23.733  17.889  0.00  0.00    +0.396 HD
ENDBRANCH  12  13
ENDBRANCH  16  15
BRANCH  29  30
ATOM     30  O   UNL     1      45.915  18.389  19.577  0.00  0.00    -0.327 OA
ATOM     31  C   UNL     1      45.575  18.099  18.219  0.00  0.00    +0.234 C 
ENDBRANCH  29  30
TORSDOF 4
ENDMDL
MODEL 2
REMARK VINA RESULT:      -6.2      3.321      5.633
REMARK  Name = ZINC15121564
REMARK  9 active torsions:
REMARK  status: ('A' for Active; 'I' for Inactive)
REMARK    1  A    between atoms: C1_1  and  C2_2
REMARK    2  A    between atoms: C4_4  and  O3_28
REMARK    3  A    between atoms: C7_7  and  C8_8
REMARK    4  A    between atoms: C13_13  and  O1_14
REMARK    5  A    between atoms: O1_14  and  C14_15
REMARK    6  A    between atoms: C15_16  and  C19_22
REMARK    7  A    between atoms: C16_18  and  C18_21
REMARK    8  A    between atoms: C23_26  and  O2_27
REMARK    9  A    between atoms: O3_28  and  C24_29
REMARK                            x       y       z     vdW  Elec       q    Type
REMARK                         _______ _______ _______ _____ _____    ______ ____
ROOT
ATOM     16  C   UNL     1      48.523  19.380  19.130  0.00  0.00    -0.022 A 
ATOM     17  C   UNL     1      49.473  20.070  18.380  0.00  0.00    +0.072 A 
ATOM     18  C   UNL     1      50.774  19.618  18.342  0.00  0.00    +0.032 A 
ATOM     19  C   UNL     1      51.149  18.481  19.043  0.00  0.00    -0.078 A 
ATOM     20  C   UNL     1      50.217  17.787  19.787  0.00  0.00    -0.147 A 
ATOM     21  C   UNL     1      50.579  16.545  20.557  0.00  0.00    +0.230 C 
ATOM     22  N   UNL     1      52.034  16.455  20.740  0.00  0.00    -0.511 N 
ATOM     23  H   UNL     1      52.346  17.208  21.364  0.00  0.00    +0.432 HD
ATOM     24  H   UNL     1      52.269  15.546  21.156  0.00  0.00    +0.435 HD
ATOM     25  C   UNL     1      52.712  16.586  19.437  0.00  0.00    +0.171 C 
ATOM     26  C   UNL     1      54.190  16.220  19.592  0.00  0.00    +0.094 C 
ATOM     27  C   UNL     1      50.088  15.314  19.792  0.00  0.00    +0.101 C 
ATOM     28  C   UNL     1      52.588  18.035  18.968  0.00  0.00    +0.131 C 
ATOM     29  C   UNL     1      48.902  18.233  19.835  0.00  0.00    +0.134 A 
ENDROOT
BRANCH  16  15
ATOM      1  C   UNL     1      46.541  18.152  17.449  0.00  0.00    +0.097 C 
ATOM      2  C   UNL     1      46.158  19.275  18.378  0.00  0.00    +0.007 A 
ATOM      3  C   UNL     1      44.841  19.714  18.418  0.00  0.00    -0.099 A 
ATOM      4  C   UNL     1      44.461  20.738  19.257  0.00  0.00    +0.179 A 
ATOM      7  C   UNL     1      45.417  21.354  20.089  0.00  0.00    -0.109 A 
ATOM      8  C   UNL     1      46.760  20.909  20.058  0.00  0.00    +0.025 A 
ATOM      9  C   UNL     1      47.712  21.527  20.882  0.00  0.00    -0.026 A 
ATOM     10  C   UNL     1      47.339  22.540  21.713  0.00  0.00    +0.059 A 
ATOM     11  C   UNL     1      46.020  22.983  21.755  0.00  0.00    -0.033 A 
ATOM     12  C   UNL     1      45.058  22.404  20.957  0.00  0.00    +0.159 A 
ATOM     15  C   UNL     1      47.122  19.857  19.182  0.00  0.00    -0.115 A 
BRANCH   4   5
ATOM      5  O   UNL     1      43.168  21.154  19.283  0.00  0.00    -0.292 OA
ATOM      6  C   UNL     1      42.189  20.257  18.755  0.00  0.00    +0.248 C 
ENDBRANCH   4   5
BRANCH  12  13
ATOM     13  O   UNL     1      43.773  22.843  21.006  0.00  0.00    -0.479 OA
ATOM     14  H   UNL     1      43.130  22.216  20.650  0.00  0.00    +0.396 HD
ENDBRANCH  12  13
ENDBRANCH  16  15
BRANCH  29  30
ATOM     30  O   UNL     1      47.981  17.550  20.562  0.00  0.00    -0.327 OA
ATOM     31  C   UNL     1      47.859  17.896  21.944  0.00  0.00    +0.234 C 
ENDBRANCH  29  30
TORSDOF 4
ENDMDL
MODEL 3
REMARK VINA RESULT:      -6.2      3.737      6.921
REMARK  Name = ZINC15121564
REMARK  9 active torsions:
REMARK  status: ('A' for Active; 'I' for Inactive)
REMARK    1  A    between atoms: C1_1  and  C2_2
REMARK    2  A    between atoms: C4_4  and  O3_28
REMARK    3  A    between atoms: C7_7  and  C8_8
REMARK    4  A    between atoms: C13_13  and  O1_14
REMARK    5  A    between atoms: O1_14  and  C14_15
REMARK    6  A    between atoms: C15_16  and  C19_22
REMARK    7  A    between atoms: C16_18  and  C18_21
REMARK    8  A    between atoms: C23_26  and  O2_27
REMARK    9  A    between atoms: O3_28  and  C24_29
REMARK                            x       y       z     vdW  Elec       q    Type
REMARK                         _______ _______ _______ _____ _____    ______ ____
ROOT
ATOM     16  C   UNL     1      46.669  18.382  19.670  0.00  0.00    -0.022 A 
ATOM     17  C   UNL     1      46.407  17.430  20.652  0.00  0.00    +0.072 A 
ATOM     18  C   UNL     1      45.167  17.390  21.252  0.00  0.00    +0.032 A 
ATOM     19  C   UNL     1      44.176  18.290  20.888  0.00  0.00    -0.078 A 
ATOM     20  C   UNL     1      44.423  19.235  19.915  0.00  0.00    -0.147 A 
ATOM     21  C   UNL     1      43.374  20.226  19.484  0.00  0.00    +0.230 C 
ATOM     22  N   UNL     1      42.301  20.312  20.485  0.00  0.00    -0.511 N 
ATOM     23  H   UNL     1      42.671  20.732  21.346  0.00  0.00    +0.432 HD
ATOM     24  H   UNL     1      41.540  20.895  20.118  0.00  0.00    +0.435 HD
ATOM     25  C   UNL     1      41.783  18.963  20.782  0.00  0.00    +0.171 C 
ATOM     26  C   UNL     1      40.499  19.079  21.605  0.00  0.00    +0.094 C 
ATOM     27  C   UNL     1      42.782  19.785  18.144  0.00  0.00    +0.101 C 
ATOM     28  C   UNL     1      42.839  18.203  21.583  0.00  0.00    +0.131 C 
ATOM     29  C   UNL     1      45.669  19.287  19.302  0.00  0.00    +0.134 A 
ENDROOT
BRANCH  16  15
ATOM      1  C   UNL     1      47.157  16.827  17.302  0.00  0.00    +0.097 C 
ATOM      2  C   UNL     1      48.247  17.693  17.879  0.00  0.00    +0.007 A 
ATOM      3  C   UNL     1      49.489  17.737  17.259  0.00  0.00    -0.099 A 
ATOM      4  C   UNL     1      50.505  18.520  17.763  0.00  0.00    +0.179 A 
ATOM      7  C   UNL     1      50.287  19.289  18.923  0.00  0.00    -0.109 A 
ATOM      8  C   UNL     1      49.022  19.254  19.557  0.00  0.00    +0.025 A 
ATOM      9  C   UNL     1      48.808  20.015  20.715  0.00  0.00    -0.026 A 
ATOM     10  C   UNL     1      49.811  20.790  21.216  0.00  0.00    +0.059 A 
ATOM     11  C   UNL     1      51.057  20.837  20.599  0.00  0.00    -0.033 A 
ATOM     12  C   UNL     1      51.307  20.098  19.462  0.00  0.00    +0.159 A 
ATOM     15  C   UNL     1      47.999  18.437  19.019  0.00  0.00    -0.115 A 
BRANCH   4   5
ATOM      5  O   UNL     1      51.713  18.550  17.143  0.00  0.00    -0.292 OA
ATOM      6  C   UNL     1      51.720  18.876  15.753  0.00  0.00    +0.248 C 
ENDBRANCH   4   5
BRANCH  12  13
ATOM     13  O   UNL     1      52.526  20.150  18.866  0.00  0.00    -0.479 OA
ATOM     14  H   UNL     1      52.898  19.284  18.654  0.00  0.00    +0.396 HD
ENDBRANCH  12  13
ENDBRANCH  16  15
BRANCH  29  30
ATOM     30  O   UNL     1      45.913  20.214  18.341  0.00  0.00    -0.327 OA
ATOM     31  C   UNL     1      46.120  21.560  18.775  0.00  0.00    +0.234 C 
ENDBRANCH  29  30
TORSDOF 4
ENDMDL
MODEL 4
REMARK VINA RESULT:      -6.1      2.951      4.819
REMARK  Name = ZINC15121564
REMARK  9 active torsions:
REMARK  status: ('A' for Active; 'I' for Inactive)
REMARK    1  A    between atoms: C1_1  and  C2_2
REMARK    2  A    between atoms: C4_4  and  O3_28
REMARK    3  A    between atoms: C7_7  and  C8_8
REMARK    4  A    between atoms: C13_13  and  O1_14
REMARK    5  A    between atoms: O1_14  and  C14_15
REMARK    6  A    between atoms: C15_16  and  C19_22
REMARK    7  A    between atoms: C16_18  and  C18_21
REMARK    8  A    between atoms: C23_26  and  O2_27
REMARK    9  A    between atoms: O3_28  and  C24_29
REMARK                            x       y       z     vdW  Elec       q    Type
REMARK                         _______ _______ _______ _____ _____    ______ ____
ROOT
ATOM     16  C   UNL     1      47.092  18.993  20.178  0.00  0.00    -0.022 A 
ATOM     17  C   UNL     1      47.883  19.528  21.192  0.00  0.00    +0.072 A 
ATOM     18  C   UNL     1      49.226  19.224  21.245  0.00  0.00    +0.032 A 
ATOM     19  C   UNL     1      49.801  18.390  20.297  0.00  0.00    -0.078 A 
ATOM     20  C   UNL     1      49.028  17.856  19.286  0.00  0.00    -0.147 A 
ATOM     21  C   UNL     1      49.611  16.952  18.232  0.00  0.00    +0.230 C 
ATOM     22  N   UNL     1      50.908  16.416  18.670  0.00  0.00    -0.511 N 
ATOM     23  H   UNL     1      50.764  15.779  19.462  0.00  0.00    +0.432 HD
ATOM     24  H   UNL     1      51.344  15.905  17.894  0.00  0.00    +0.435 HD
ATOM     25  C   UNL     1      51.792  17.521  19.085  0.00  0.00    +0.171 C 
ATOM     26  C   UNL     1      53.215  16.992  19.274  0.00  0.00    +0.094 C 
ATOM     27  C   UNL     1      49.801  17.742  16.936  0.00  0.00    +0.101 C 
ATOM     28  C   UNL     1      51.274  18.088  20.406  0.00  0.00    +0.131 C 
ATOM     29  C   UNL     1      47.672  18.154  19.222  0.00  0.00    +0.134 A 
ENDROOT
BRANCH  16  15
ATOM      1  C   UNL     1      46.189  21.169  18.532  0.00  0.00    +0.097 C 
ATOM      2  C   UNL     1      45.199  20.355  19.324  0.00  0.00    +0.007 A 
ATOM      3  C   UNL     1      43.845  20.661  19.254  0.00  0.00    -0.099 A 
ATOM      4  C   UNL     1      42.917  19.934  19.966  0.00  0.00    +0.179 A 
ATOM      7  C   UNL     1      43.339  18.864  20.780  0.00  0.00    -0.109 A 
ATOM      8  C   UNL     1      44.715  18.542  20.852  0.00  0.00    +0.025 A 
ATOM      9  C   UNL     1      45.135  17.481  21.666  0.00  0.00    -0.026 A 
ATOM     10  C   UNL     1      44.218  16.760  22.373  0.00  0.00    +0.059 A 
ATOM     11  C   UNL     1      42.862  17.064  22.305  0.00  0.00    -0.033 A 
ATOM     12  C   UNL     1      42.413  18.103  21.520  0.00  0.00    +0.159 A 
ATOM     15  C   UNL     1      45.647  19.310  20.113  0.00  0.00    -0.115 A 
BRANCH   4   5
ATOM      5  O   UNL     1      41.598  20.248  19.885  0.00  0.00    -0.292 OA
ATOM      6  C   UNL     1      41.220  21.204  18.893  0.00  0.00    +0.248 C 
ENDBRANCH   4   5
BRANCH  12  13
ATOM     13  O   UNL     1      41.087  18.392  21.461  0.00  0.00    -0.479 OA
ATOM     14  H   UNL     1      40.514  17.675  21.765  0.00  0.00    +0.396 HD
ENDBRANCH  12  13
ENDBRANCH  16  15
BRANCH  29  30
ATOM     30  O   UNL     1      46.910  17.633  18.226  0.00  0.00    -0.327 OA
ATOM     31  C   UNL     1      46.365  16.329  18.439  0.00  0.00    +0.234 C 
ENDBRANCH  29  30
TORSDOF 4
ENDMDL
MODEL 5
REMARK VINA RESULT:      -6.1      2.500      3.927
REMARK  Name = ZINC15121564
REMARK  9 active torsions:
REMARK  status: ('A' for Active; 'I' for Inactive)
REMARK    1  A    between atoms: C1_1  and  C2_2
REMARK    2  A    between atoms: C4_4  and  O3_28
REMARK    3  A    between atoms: C7_7  and  C8_8
REMARK    4  A    between atoms: C13_13  and  O1_14
REMARK    5  A    between atoms: O1_14  and  C14_15
REMARK    6  A    between atoms: C15_16  and  C19_22
REMARK    7  A    between atoms: C16_18  and  C18_21
REMARK    8  A    between atoms: C23_26  and  O2_27
REMARK    9  A    between atoms: O3_28  and  C24_29
REMARK                            x       y       z     vdW  Elec       q    Type
REMARK                         _______ _______ _______ _____ _____    ______ ____
ROOT
ATOM     16  C   UNL     1      46.660  17.973  18.532  0.00  0.00    -0.022 A 
ATOM     17  C   UNL     1      46.846  17.908  17.153  0.00  0.00    +0.072 A 
ATOM     18  C   UNL     1      46.932  16.681  16.532  0.00  0.00    +0.032 A 
ATOM     19  C   UNL     1      46.836  15.507  17.267  0.00  0.00    -0.078 A 
ATOM     20  C   UNL     1      46.648  15.560  18.633  0.00  0.00    -0.147 A 
ATOM     21  C   UNL     1      46.531  14.312  19.468  0.00  0.00    +0.230 C 
ATOM     22  N   UNL     1      47.050  13.149  18.736  0.00  0.00    -0.511 N 
ATOM     23  H   UNL     1      48.065  13.247  18.616  0.00  0.00    +0.432 HD
ATOM     24  H   UNL     1      46.849  12.294  19.269  0.00  0.00    +0.435 HD
ATOM     25  C   UNL     1      46.406  13.061  17.412  0.00  0.00    +0.171 C 
ATOM     26  C   UNL     1      46.739  11.713  16.771  0.00  0.00    +0.094 C 
ATOM     27  C   UNL     1      45.060  14.075  19.818  0.00  0.00    +0.101 C 
ATOM     28  C   UNL     1      46.942  14.193  16.536  0.00  0.00    +0.131 C 
ATOM     29  C   UNL     1      46.561  16.791  19.271  0.00  0.00    +0.134 A 
ENDROOT
BRANCH  16  15
ATOM      1  C   UNL     1      49.025  19.161  19.655  0.00  0.00    +0.097 C 
ATOM      2  C   UNL     1      47.699  19.869  19.756  0.00  0.00    +0.007 A 
ATOM      3  C   UNL     1      47.626  21.101  20.394  0.00  0.00    -0.099 A 
ATOM      4  C   UNL     1      46.428  21.773  20.500  0.00  0.00    +0.179 A 
ATOM      7  C   UNL     1      45.257  21.208  19.958  0.00  0.00    -0.109 A 
ATOM      8  C   UNL     1      45.324  19.957  19.301  0.00  0.00    +0.025 A 
ATOM      9  C   UNL     1      44.157  19.392  18.767  0.00  0.00    -0.026 A 
ATOM     10  C   UNL     1      42.970  20.055  18.872  0.00  0.00    +0.059 A 
ATOM     11  C   UNL     1      42.893  21.288  19.510  0.00  0.00    -0.033 A 
ATOM     12  C   UNL     1      44.017  21.872  20.052  0.00  0.00    +0.159 A 
ATOM     15  C   UNL     1      46.569  19.287  19.211  0.00  0.00    -0.115 A 
BRANCH   4   5
ATOM      5  O   UNL     1      46.376  22.977  21.127  0.00  0.00    -0.292 OA
ATOM      6  C   UNL     1      47.254  23.167  22.238  0.00  0.00    +0.248 C 
ENDBRANCH   4   5
BRANCH  12  13
ATOM     13  O   UNL     1      43.931  23.077  20.673  0.00  0.00    -0.479 OA
ATOM     14  H   UNL     1      44.689  23.656  20.516  0.00  0.00    +0.396 HD
ENDBRANCH  12  13
ENDBRANCH  16  15
BRANCH  29  30
ATOM     30  O   UNL     1      46.372  16.846  20.615  0.00  0.00    -0.327 OA
ATOM     31  C   UNL     1      47.505  16.568  21.441  0.00  0.00    +0.234 C 
ENDBRANCH  29  30
TORSDOF 4
ENDMDL
MODEL 6
REMARK VINA RESULT:      -6.1      2.410      3.259
REMARK  Name = ZINC15121564
REMARK  9 active torsions:
REMARK  status: ('A' for Active; 'I' for Inactive)
REMARK    1  A    between atoms: C1_1  and  C2_2
REMARK    2  A    between atoms: C4_4  and  O3_28
REMARK    3  A    between atoms: C7_7  and  C8_8
REMARK    4  A    between atoms: C13_13  and  O1_14
REMARK    5  A    between atoms: O1_14  and  C14_15
REMARK    6  A    between atoms: C15_16  and  C19_22
REMARK    7  A    between atoms: C16_18  and  C18_21
REMARK    8  A    between atoms: C23_26  and  O2_27
REMARK    9  A    between atoms: O3_28  and  C24_29
REMARK                            x       y       z     vdW  Elec       q    Type
REMARK                         _______ _______ _______ _____ _____    ______ ____
ROOT
ATOM     16  C   UNL     1      45.653  17.347  19.968  0.00  0.00    -0.022 A 
ATOM     17  C   UNL     1      45.066  16.343  20.735  0.00  0.00    +0.072 A 
ATOM     18  C   UNL     1      45.063  15.044  20.275  0.00  0.00    +0.032 A 
ATOM     19  C   UNL     1      45.640  14.725  19.054  0.00  0.00    -0.078 A 
ATOM     20  C   UNL     1      46.227  15.710  18.287  0.00  0.00    -0.147 A 
ATOM     21  C   UNL     1      46.871  15.408  16.960  0.00  0.00    +0.230 C 
ATOM     22  N   UNL     1      46.420  14.105  16.451  0.00  0.00    -0.511 N 
ATOM     23  H   UNL     1      45.423  14.159  16.213  0.00  0.00    +0.432 HD
ATOM     24  H   UNL     1      46.960  13.862  15.612  0.00  0.00    +0.435 HD
ATOM     25  C   UNL     1      46.622  13.067  17.480  0.00  0.00    +0.171 C 
ATOM     26  C   UNL     1      46.412  11.685  16.858  0.00  0.00    +0.094 C 
ATOM     27  C   UNL     1      48.392  15.386  17.129  0.00  0.00    +0.101 C 
ATOM     28  C   UNL     1      45.604  13.287  18.598  0.00  0.00    +0.131 C 
ATOM     29  C   UNL     1      46.235  17.024  18.740  0.00  0.00    +0.134 A 
ENDROOT
BRANCH  16  15
ATOM      1  C   UNL     1      47.713  18.217  21.773  0.00  0.00    +0.097 C 
ATOM      2  C   UNL     1      46.646  19.179  21.320  0.00  0.00    +0.007 A 
ATOM      3  C   UNL     1      46.662  20.490  21.779  0.00  0.00    -0.099 A 
ATOM      4  C   UNL     1      45.700  21.392  21.382  0.00  0.00    +0.179 A 
ATOM      7  C   UNL     1      44.681  20.986  20.498  0.00  0.00    -0.109 A 
ATOM      8  C   UNL     1      44.659  19.653  20.022  0.00  0.00    +0.025 A 
ATOM      9  C   UNL     1      43.641  19.248  19.148  0.00  0.00    -0.026 A 
ATOM     10  C   UNL     1      42.687  20.138  18.753  0.00  0.00    +0.059 A 
ATOM     11  C   UNL     1      42.701  21.452  19.211  0.00  0.00    -0.033 A 
ATOM     12  C   UNL     1      43.682  21.885  20.075  0.00  0.00    +0.159 A 
ATOM     15  C   UNL     1      45.659  18.747  20.451  0.00  0.00    -0.115 A 
BRANCH   4   5
ATOM      5  O   UNL     1      45.733  22.670  21.841  0.00  0.00    -0.292 OA
ATOM      6  C   UNL     1      47.015  23.296  21.923  0.00  0.00    +0.248 C 
ENDBRANCH   4   5
BRANCH  12  13
ATOM     13  O   UNL     1      43.687  23.170  20.516  0.00  0.00    -0.479 OA
ATOM     14  H   UNL     1      42.905  23.414  21.029  0.00  0.00    +0.396 HD
ENDBRANCH  12  13
ENDBRANCH  16  15
BRANCH  29  30
ATOM     30  O   UNL     1      46.817  17.995  17.989  0.00  0.00    -0.327 OA
ATOM     31  C   UNL     1      48.167  18.341  18.308  0.00  0.00    +0.234 C 
ENDBRANCH  29  30
TORSDOF 4
ENDMDL
MODEL 7
REMARK VINA RESULT:      -5.9      3.196      5.248
REMARK  Name = ZINC15121564
REMARK  9 active torsions:
REMARK  status: ('A' for Active; 'I' for Inactive)
REMARK    1  A    between atoms: C1_1  and  C2_2
REMARK    2  A    between atoms: C4_4  and  O3_28
REMARK    3  A    between atoms: C7_7  and  C8_8
REMARK    4  A    between atoms: C13_13  and  O1_14
REMARK    5  A    between atoms: O1_14  and  C14_15
REMARK    6  A    between atoms: C15_16  and  C19_22
REMARK    7  A    between atoms: C16_18  and  C18_21
REMARK    8  A    between atoms: C23_26  and  O2_27
REMARK    9  A    between atoms: O3_28  and  C24_29
REMARK                            x       y       z     vdW  Elec       q    Type
REMARK                         _______ _______ _______ _____ _____    ______ ____
ROOT
ATOM     16  C   UNL     1      46.336  20.944  20.994  0.00  0.00    -0.022 A 
ATOM     17  C   UNL     1      46.654  21.677  22.135  0.00  0.00    +0.072 A 
ATOM     18  C   UNL     1      47.972  21.830  22.505  0.00  0.00    +0.032 A 
ATOM     19  C   UNL     1      48.989  21.260  21.752  0.00  0.00    -0.078 A 
ATOM     20  C   UNL     1      48.687  20.534  20.618  0.00  0.00    -0.147 A 
ATOM     21  C   UNL     1      49.758  19.904  19.767  0.00  0.00    +0.230 C 
ATOM     22  N   UNL     1      51.021  19.811  20.512  0.00  0.00    -0.511 N 
ATOM     23  H   UNL     1      50.915  19.137  21.279  0.00  0.00    +0.432 HD
ATOM     24  H   UNL     1      51.766  19.496  19.880  0.00  0.00    +0.435 HD
ATOM     25  C   UNL     1      51.376  21.131  21.065  0.00  0.00    +0.171 C 
ATOM     26  C   UNL     1      52.810  21.093  21.597  0.00  0.00    +0.094 C 
ATOM     27  C   UNL     1      49.972  20.754  18.513  0.00  0.00    +0.101 C 
ATOM     28  C   UNL     1      50.414  21.455  22.207  0.00  0.00    +0.131 C 
ATOM     29  C   UNL     1      47.360  20.372  20.235  0.00  0.00    +0.134 A 
ENDROOT
BRANCH  16  15
ATOM      1  C   UNL     1      45.155  22.795  19.139  0.00  0.00    +0.097 C 
ATOM      2  C   UNL     1      44.341  21.655  19.695  0.00  0.00    +0.007 A 
ATOM      3  C   UNL     1      43.016  21.503  19.306  0.00  0.00    -0.099 A 
ATOM      4  C   UNL     1      42.248  20.470  19.798  0.00  0.00    +0.179 A 
ATOM      7  C   UNL     1      42.807  19.552  20.709  0.00  0.00    -0.109 A 
ATOM      8  C   UNL     1      44.158  19.697  21.106  0.00  0.00    +0.025 A 
ATOM      9  C   UNL     1      44.712  18.788  22.017  0.00  0.00    -0.026 A 
ATOM     10  C   UNL     1      43.954  17.765  22.506  0.00  0.00    +0.059 A 
ATOM     11  C   UNL     1      42.627  17.610  22.118  0.00  0.00    -0.033 A 
ATOM     12  C   UNL     1      42.046  18.487  21.229  0.00  0.00    +0.159 A 
ATOM     15  C   UNL     1      44.922  20.772  20.588  0.00  0.00    -0.115 A 
BRANCH   4   5
ATOM      5  O   UNL     1      40.954  20.337  19.406  0.00  0.00    -0.292 OA
ATOM      6  C   UNL     1      40.369  21.443  18.716  0.00  0.00    +0.248 C 
ENDBRANCH   4   5
BRANCH  12  13
ATOM     13  O   UNL     1      40.750  18.326  20.857  0.00  0.00    -0.479 OA
ATOM     14  H   UNL     1      40.467  17.403  20.804  0.00  0.00    +0.396 HD
ENDBRANCH  12  13
ENDBRANCH  16  15
BRANCH  29  30
ATOM     30  O   UNL     1      47.060  19.662  19.117  0.00  0.00    -0.327 OA
ATOM     31  C   UNL     1      46.987  18.241  19.251  0.00  0.00    +0.234 C 
ENDBRANCH  29  30
TORSDOF 4
ENDMDL
MODEL 8
REMARK VINA RESULT:      -5.8      3.965      7.980
REMARK  Name = ZINC15121564
REMARK  9 active torsions:
REMARK  status: ('A' for Active; 'I' for Inactive)
REMARK    1  A    between atoms: C1_1  and  C2_2
REMARK    2  A    between atoms: C4_4  and  O3_28
REMARK    3  A    between atoms: C7_7  and  C8_8
REMARK    4  A    between atoms: C13_13  and  O1_14
REMARK    5  A    between atoms: O1_14  and  C14_15
REMARK    6  A    between atoms: C15_16  and  C19_22
REMARK    7  A    between atoms: C16_18  and  C18_21
REMARK    8  A    between atoms: C23_26  and  O2_27
REMARK    9  A    between atoms: O3_28  and  C24_29
REMARK                            x       y       z     vdW  Elec       q    Type
REMARK                         _______ _______ _______ _____ _____    ______ ____
ROOT
ATOM     16  C   UNL     1      47.937  19.824  20.225  0.00  0.00    -0.022 A 
ATOM     17  C   UNL     1      47.917  21.147  20.661  0.00  0.00    +0.072 A 
ATOM     18  C   UNL     1      46.774  21.901  20.508  0.00  0.00    +0.032 A 
ATOM     19  C   UNL     1      45.640  21.356  19.923  0.00  0.00    -0.078 A 
ATOM     20  C   UNL     1      45.646  20.046  19.491  0.00  0.00    -0.147 A 
ATOM     21  C   UNL     1      44.436  19.412  18.858  0.00  0.00    +0.230 C 
ATOM     22  N   UNL     1      43.489  20.441  18.406  0.00  0.00    -0.511 N 
ATOM     23  H   UNL     1      43.904  20.966  17.627  0.00  0.00    +0.432 HD
ATOM     24  H   UNL     1      42.621  19.990  18.092  0.00  0.00    +0.435 HD
ATOM     25  C   UNL     1      43.186  21.365  19.514  0.00  0.00    +0.171 C 
ATOM     26  C   UNL     1      42.006  22.258  19.125  0.00  0.00    +0.094 C 
ATOM     27  C   UNL     1      43.747  18.505  19.880  0.00  0.00    +0.101 C 
ATOM     28  C   UNL     1      44.419  22.229  19.776  0.00  0.00    +0.131 C 
ATOM     29  C   UNL     1      46.793  19.275  19.639  0.00  0.00    +0.134 A 
ENDROOT
BRANCH  16  15
ATOM      1  C   UNL     1      48.205  18.095  22.505  0.00  0.00    +0.097 C 
ATOM      2  C   UNL     1      49.302  18.168  21.475  0.00  0.00    +0.007 A 
ATOM      3  C   UNL     1      50.445  17.394  21.633  0.00  0.00    -0.099 A 
ATOM      4  C   UNL     1      51.464  17.439  20.707  0.00  0.00    +0.179 A 
ATOM      7  C   UNL     1      51.353  18.280  19.583  0.00  0.00    -0.109 A 
ATOM      8  C   UNL     1      50.190  19.068  19.412  0.00  0.00    +0.025 A 
ATOM      9  C   UNL     1      50.082  19.910  18.296  0.00  0.00    -0.026 A 
ATOM     10  C   UNL     1      51.090  19.957  17.379  0.00  0.00    +0.059 A 
ATOM     11  C   UNL     1      52.235  19.184  17.533  0.00  0.00    -0.033 A 
ATOM     12  C   UNL     1      52.379  18.349  18.620  0.00  0.00    +0.159 A 
ATOM     15  C   UNL     1      49.160  19.004  20.383  0.00  0.00    -0.115 A 
BRANCH   4   5
ATOM      5  O   UNL     1      52.574  16.674  20.878  0.00  0.00    -0.292 OA
ATOM      6  C   UNL     1      53.284  16.829  22.108  0.00  0.00    +0.248 C 
ENDBRANCH   4   5
BRANCH  12  13
ATOM     13  O   UNL     1      53.501  17.597  18.761  0.00  0.00    -0.479 OA
ATOM     14  H   UNL     1      53.638  17.258  19.657  0.00  0.00    +0.396 HD
ENDBRANCH  12  13
ENDBRANCH  16  15
BRANCH  29  30
ATOM     30  O   UNL     1      46.800  17.984  19.218  0.00  0.00    -0.327 OA
ATOM     31  C   UNL     1      47.080  17.753  17.836  0.00  0.00    +0.234 C 
ENDBRANCH  29  30
TORSDOF 4
ENDMDL
MODEL 9
REMARK VINA RESULT:      -5.7      3.689      7.140
REMARK  Name = ZINC15121564
REMARK  9 active torsions:
REMARK  status: ('A' for Active; 'I' for Inactive)
REMARK    1  A    between atoms: C1_1  and  C2_2
REMARK    2  A    between atoms: C4_4  and  O3_28
REMARK    3  A    between atoms: C7_7  and  C8_8
REMARK    4  A    between atoms: C13_13  and  O1_14
REMARK    5  A    between atoms: O1_14  and  C14_15
REMARK    6  A    between atoms: C15_16  and  C19_22
REMARK    7  A    between atoms: C16_18  and  C18_21
REMARK    8  A    between atoms: C23_26  and  O2_27
REMARK    9  A    between atoms: O3_28  and  C24_29
REMARK                            x       y       z     vdW  Elec       q    Type
REMARK                         _______ _______ _______ _____ _____    ______ ____
ROOT
ATOM     16  C   UNL     1      47.090  20.233  19.949  0.00  0.00    -0.022 A 
ATOM     17  C   UNL     1      46.651  21.166  19.012  0.00  0.00    +0.072 A 
ATOM     18  C   UNL     1      45.304  21.290  18.750  0.00  0.00    +0.032 A 
ATOM     19  C   UNL     1      44.378  20.494  19.410  0.00  0.00    -0.078 A 
ATOM     20  C   UNL     1      44.801  19.569  20.342  0.00  0.00    -0.147 A 
ATOM     21  C   UNL     1      43.831  18.691  21.087  0.00  0.00    +0.230 C 
ATOM     22  N   UNL     1      42.530  18.660  20.403  0.00  0.00    -0.511 N 
ATOM     23  H   UNL     1      42.630  18.176  19.503  0.00  0.00    +0.432 HD
ATOM     24  H   UNL     1      41.850  18.159  20.988  0.00  0.00    +0.435 HD
ATOM     25  C   UNL     1      42.054  20.036  20.169  0.00  0.00    +0.171 C 
ATOM     26  C   UNL     1      40.594  20.000  19.713  0.00  0.00    +0.094 C 
ATOM     27  C   UNL     1      43.644  19.233  22.505  0.00  0.00    +0.101 C 
ATOM     28  C   UNL     1      42.917  20.670  19.079  0.00  0.00    +0.131 C 
ATOM     29  C   UNL     1      46.157  19.433  20.615  0.00  0.00    +0.134 A 
ENDROOT
BRANCH  16  15
ATOM      1  C   UNL     1      48.250  21.672  22.151  0.00  0.00    +0.097 C 
ATOM      2  C   UNL     1      49.106  20.775  21.295  0.00  0.00    +0.007 A 
ATOM      3  C   UNL     1      50.461  20.647  21.575  0.00  0.00    -0.099 A 
ATOM      4  C   UNL     1      51.269  19.834  20.811  0.00  0.00    +0.179 A 
ATOM      7  C   UNL     1      50.721  19.121  19.726  0.00  0.00    -0.109 A 
ATOM      8  C   UNL     1      49.341  19.242  19.437  0.00  0.00    +0.025 A 
ATOM      9  C   UNL     1      48.797  18.537  18.354  0.00  0.00    -0.026 A 
ATOM     10  C   UNL     1      49.594  17.733  17.596  0.00  0.00    +0.059 A 
ATOM     11  C   UNL     1      50.951  17.602  17.874  0.00  0.00    -0.033 A 
ATOM     12  C   UNL     1      51.522  18.283  18.926  0.00  0.00    +0.159 A 
ATOM     15  C   UNL     1      48.536  20.089  20.238  0.00  0.00    -0.115 A 
BRANCH   4   5
ATOM      5  O   UNL     1      52.591  19.722  21.101  0.00  0.00    -0.292 OA
ATOM      6  C   UNL     1      52.944  19.600  22.480  0.00  0.00    +0.248 C 
ENDBRANCH   4   5
BRANCH  12  13
ATOM     13  O   UNL     1      52.848  18.149  19.190  0.00  0.00    -0.479 OA
ATOM     14  H   UNL     1      53.350  17.726  18.480  0.00  0.00    +0.396 HD
ENDBRANCH  12  13
ENDBRANCH  16  15
BRANCH  29  30
ATOM     30  O   UNL     1      46.575  18.527  21.535  0.00  0.00    -0.327 OA
ATOM     31  C   UNL     1      46.731  17.177  21.092  0.00  0.00    +0.234 C 
ENDBRANCH  29  30
TORSDOF 4
ENDMDL
