MODEL 1
REMARK VINA RESULT:      -7.3      0.000      0.000
REMARK  Name = ZINC95485969
REMARK  16 active torsions:
REMARK  status: ('A' for Active; 'I' for Inactive)
REMARK    1  A    between atoms: C1_1  and  C2_2
REMARK    2  A    between atoms: C2_2  and  C3_3
REMARK    3  A    between atoms: C3_3  and  C31_37
REMARK    4  A    between atoms: C4_4  and  C5_5
REMARK    5  A    between atoms: C5_5  and  C6_6
REMARK    6  A    between atoms: C6_6  and  C7_7
REMARK    7  A    between atoms: C10_10  and  O2_19
REMARK    8  A    between atoms: C13_14  and  C16_17
REMARK    9  A    between atoms: C13_14  and  C17_18
REMARK   10  A    between atoms: C21_24  and  O6_36
REMARK   11  A    between atoms: C22_25  and  C25_30
REMARK   12  A    between atoms: C23_26  and  O5_29
REMARK   13  A    between atoms: C25_30  and  C26_31
REMARK   14  A    between atoms: C26_31  and  C27_32
REMARK   15  A    between atoms: C28_33  and  C29_34
REMARK   16  A    between atoms: C28_33  and  C30_35
REMARK                            x       y       z     vdW  Elec       q    Type
REMARK                         _______ _______ _______ _____ _____    ______ ____
ROOT
ATOM      8  C   UNL     1      45.397  19.380  19.171  0.00  0.00    -0.144 A 
ATOM      9  C   UNL     1      46.542  19.788  19.846  0.00  0.00    +0.212 A 
ATOM     10  C   UNL     1      46.575  21.064  20.441  0.00  0.00    -0.283 A 
ATOM     11  C   UNL     1      47.806  21.483  21.135  0.00  0.00    +0.443 A 
ATOM     12  C   UNL     1      49.001  20.643  20.898  0.00  0.00    -0.198 A 
ATOM     13  C   UNL     1      50.270  21.077  21.276  0.00  0.00    +0.091 A 
ATOM     14  C   UNL     1      51.368  20.272  21.035  0.00  0.00    +0.096 A 
ATOM     17  C   UNL     1      51.204  19.037  20.418  0.00  0.00    -0.070 A 
ATOM     24  C   UNL     1      49.949  18.598  20.042  0.00  0.00    +0.106 A 
ATOM     27  C   UNL     1      48.828  19.396  20.281  0.00  0.00    +0.125 A 
ATOM     28  O   UNL     1      47.837  22.461  21.860  0.00  0.00    -0.427 OA
ATOM     29  C   UNL     1      45.466  21.915  20.368  0.00  0.00    +0.243 A 
ATOM     32  C   UNL     1      44.330  21.489  19.688  0.00  0.00    -0.190 A 
ATOM     33  C   UNL     1      43.132  22.348  19.576  0.00  0.00    +0.057 C 
ATOM     34  C   UNL     1      41.987  21.784  19.203  0.00  0.00    -0.049 C 
ATOM     35  C   UNL     1      41.933  20.302  18.939  0.00  0.00    +0.146 C 
ATOM     36  C   UNL     1      41.621  19.568  20.245  0.00  0.00    +0.037 C 
ATOM     37  C   UNL     1      40.827  20.012  17.923  0.00  0.00    +0.088 C 
ATOM     38  O   UNL     1      43.180  19.836  18.424  0.00  0.00    -0.287 OA
ATOM     39  O   UNL     1      47.602  18.958  19.925  0.00  0.00    -0.208 OA
ATOM     40  C   UNL     1      44.303  20.218  19.084  0.00  0.00    +0.217 A 
ENDROOT
BRANCH  14  15
ATOM     15  O   UNL     1      52.609  20.688  21.402  0.00  0.00    -0.482 OA
ATOM     16  H   UNL     1      52.890  21.510  20.979  0.00  0.00    +0.392 HD
ENDBRANCH  14  15
BRANCH  24  25
ATOM     25  O   UNL     1      49.804  17.388  19.439  0.00  0.00    -0.472 OA
ATOM     26  H   UNL     1      49.488  16.690  20.028  0.00  0.00    +0.392 HD
ENDBRANCH  24  25
BRANCH  29  30
ATOM     30  O   UNL     1      45.499  23.139  20.951  0.00  0.00    -0.468 OA
ATOM     31  H   UNL     1      46.178  23.727  20.593  0.00  0.00    +0.401 HD
ENDBRANCH  29  30
BRANCH   8   7
ATOM      7  C   UNL     1      45.353  18.019  18.525  0.00  0.00    +0.105 C 
BRANCH   7   6
ATOM      6  C   UNL     1      45.049  16.960  19.587  0.00  0.00    +0.055 C 
BRANCH   6   5
ATOM      3  C   UNL     1      45.669  14.631  19.972  0.00  0.00    -0.127 C 
ATOM      4  C   UNL     1      45.157  14.786  21.380  0.00  0.00    +0.071 C 
ATOM      5  C   UNL     1      45.559  15.622  19.122  0.00  0.00    -0.050 C 
BRANCH   3   2
ATOM      1  C   UNL     1      45.615  12.821  18.278  0.00  0.00    +0.019 C 
ATOM      2  C   UNL     1      46.307  13.335  19.541  0.00  0.00    +0.044 C 
ENDBRANCH   3   2
ENDBRANCH   6   5
ENDBRANCH   7   6
ENDBRANCH   8   7
BRANCH  17  18
ATOM     18  C   UNL     1      52.407  18.168  20.156  0.00  0.00    +0.100 C 
BRANCH  18  19
ATOM     19  C   UNL     1      52.657  18.083  18.649  0.00  0.00    +0.056 C 
BRANCH  19  20
ATOM     20  C   UNL     1      52.595  19.465  18.051  0.00  0.00    -0.059 C 
ATOM     21  C   UNL     1      51.934  19.668  16.939  0.00  0.00    -0.126 C 
ATOM     22  C   UNL     1      51.749  21.071  16.418  0.00  0.00    +0.073 C 
ATOM     23  C   UNL     1      51.358  18.501  16.180  0.00  0.00    +0.073 C 
ENDBRANCH  19  20
ENDBRANCH  18  19
ENDBRANCH  17  18
TORSDOF 10
ENDMDL
MODEL 2
REMARK VINA RESULT:      -7.2      2.642      8.357
REMARK  Name = ZINC95485969
REMARK  16 active torsions:
REMARK  status: ('A' for Active; 'I' for Inactive)
REMARK    1  A    between atoms: C1_1  and  C2_2
REMARK    2  A    between atoms: C2_2  and  C3_3
REMARK    3  A    between atoms: C3_3  and  C31_37
REMARK    4  A    between atoms: C4_4  and  C5_5
REMARK    5  A    between atoms: C5_5  and  C6_6
REMARK    6  A    between atoms: C6_6  and  C7_7
REMARK    7  A    between atoms: C10_10  and  O2_19
REMARK    8  A    between atoms: C13_14  and  C16_17
REMARK    9  A    between atoms: C13_14  and  C17_18
REMARK   10  A    between atoms: C21_24  and  O6_36
REMARK   11  A    between atoms: C22_25  and  C25_30
REMARK   12  A    between atoms: C23_26  and  O5_29
REMARK   13  A    between atoms: C25_30  and  C26_31
REMARK   14  A    between atoms: C26_31  and  C27_32
REMARK   15  A    between atoms: C28_33  and  C29_34
REMARK   16  A    between atoms: C28_33  and  C30_35
REMARK                            x       y       z     vdW  Elec       q    Type
REMARK                         _______ _______ _______ _____ _____    ______ ____
ROOT
ATOM      8  C   UNL     1      47.863  16.227  17.774  0.00  0.00    -0.144 A 
ATOM      9  C   UNL     1      46.907  16.565  18.725  0.00  0.00    +0.212 A 
ATOM     10  C   UNL     1      46.137  15.549  19.322  0.00  0.00    -0.283 A 
ATOM     11  C   UNL     1      45.117  15.933  20.314  0.00  0.00    +0.443 A 
ATOM     12  C   UNL     1      44.792  17.374  20.384  0.00  0.00    -0.198 A 
ATOM     13  C   UNL     1      43.673  17.825  21.082  0.00  0.00    +0.091 A 
ATOM     14  C   UNL     1      43.393  19.178  21.124  0.00  0.00    +0.096 A 
ATOM     17  C   UNL     1      44.225  20.082  20.473  0.00  0.00    -0.070 A 
ATOM     24  C   UNL     1      45.338  19.644  19.781  0.00  0.00    +0.106 A 
ATOM     27  C   UNL     1      45.638  18.281  19.731  0.00  0.00    +0.125 A 
ATOM     28  O   UNL     1      44.574  15.112  21.032  0.00  0.00    -0.427 OA
ATOM     29  C   UNL     1      46.331  14.207  18.973  0.00  0.00    +0.243 A 
ATOM     32  C   UNL     1      47.292  13.889  18.019  0.00  0.00    -0.190 A 
ATOM     33  C   UNL     1      47.537  12.489  17.610  0.00  0.00    +0.057 C 
ATOM     34  C   UNL     1      48.658  12.215  16.949  0.00  0.00    -0.049 C 
ATOM     35  C   UNL     1      49.648  13.313  16.665  0.00  0.00    +0.146 C 
ATOM     36  C   UNL     1      50.623  13.429  17.839  0.00  0.00    +0.037 C 
ATOM     37  C   UNL     1      50.429  12.971  15.395  0.00  0.00    +0.088 C 
ATOM     38  O   UNL     1      48.978  14.561  16.484  0.00  0.00    -0.287 OA
ATOM     39  O   UNL     1      46.734  17.858  19.067  0.00  0.00    -0.208 OA
ATOM     40  C   UNL     1      48.054  14.907  17.416  0.00  0.00    +0.217 A 
ENDROOT
BRANCH  14  15
ATOM     15  O   UNL     1      42.303  19.626  21.803  0.00  0.00    -0.482 OA
ATOM     16  H   UNL     1      41.940  20.454  21.463  0.00  0.00    +0.392 HD
ENDBRANCH  14  15
BRANCH  24  25
ATOM     25  O   UNL     1      46.142  20.540  19.149  0.00  0.00    -0.472 OA
ATOM     26  H   UNL     1      46.228  21.386  19.610  0.00  0.00    +0.392 HD
ENDBRANCH  24  25
BRANCH  29  30
ATOM     30  O   UNL     1      45.594  13.231  19.558  0.00  0.00    -0.468 OA
ATOM     31  H   UNL     1      45.248  13.468  20.430  0.00  0.00    +0.401 HD
ENDBRANCH  29  30
BRANCH   8   7
ATOM      7  C   UNL     1      48.690  17.307  17.124  0.00  0.00    +0.105 C 
BRANCH   7   6
ATOM      6  C   UNL     1      49.990  17.495  17.908  0.00  0.00    +0.055 C 
BRANCH   6   5
ATOM      3  C   UNL     1      50.516  19.871  18.091  0.00  0.00    -0.127 C 
ATOM      4  C   UNL     1      49.746  19.884  19.386  0.00  0.00    +0.071 C 
ATOM      5  C   UNL     1      50.682  18.747  17.439  0.00  0.00    -0.050 C 
BRANCH   3   2
ATOM      1  C   UNL     1      51.854  20.858  16.252  0.00  0.00    +0.019 C 
ATOM      2  C   UNL     1      51.096  21.152  17.547  0.00  0.00    +0.044 C 
ENDBRANCH   3   2
ENDBRANCH   6   5
ENDBRANCH   7   6
ENDBRANCH   8   7
BRANCH  17  18
ATOM     18  C   UNL     1      43.910  21.556  20.522  0.00  0.00    +0.100 C 
BRANCH  18  19
ATOM     19  C   UNL     1      43.432  22.021  19.144  0.00  0.00    +0.056 C 
BRANCH  19  20
ATOM     20  C   UNL     1      41.943  22.248  19.179  0.00  0.00    -0.059 C 
ATOM     21  C   UNL     1      41.130  21.330  18.720  0.00  0.00    -0.126 C 
ATOM     22  C   UNL     1      39.640  21.491  18.886  0.00  0.00    +0.073 C 
ATOM     23  C   UNL     1      41.683  20.111  18.027  0.00  0.00    +0.073 C 
ENDBRANCH  19  20
ENDBRANCH  18  19
ENDBRANCH  17  18
TORSDOF 10
ENDMDL
MODEL 3
REMARK VINA RESULT:      -6.9      2.296      4.646
REMARK  Name = ZINC95485969
REMARK  16 active torsions:
REMARK  status: ('A' for Active; 'I' for Inactive)
REMARK    1  A    between atoms: C1_1  and  C2_2
REMARK    2  A    between atoms: C2_2  and  C3_3
REMARK    3  A    between atoms: C3_3  and  C31_37
REMARK    4  A    between atoms: C4_4  and  C5_5
REMARK    5  A    between atoms: C5_5  and  C6_6
REMARK    6  A    between atoms: C6_6  and  C7_7
REMARK    7  A    between atoms: C10_10  and  O2_19
REMARK    8  A    between atoms: C13_14  and  C16_17
REMARK    9  A    between atoms: C13_14  and  C17_18
REMARK   10  A    between atoms: C21_24  and  O6_36
REMARK   11  A    between atoms: C22_25  and  C25_30
REMARK   12  A    between atoms: C23_26  and  O5_29
REMARK   13  A    between atoms: C25_30  and  C26_31
REMARK   14  A    between atoms: C26_31  and  C27_32
REMARK   15  A    between atoms: C28_33  and  C29_34
REMARK   16  A    between atoms: C28_33  and  C30_35
REMARK                            x       y       z     vdW  Elec       q    Type
REMARK                         _______ _______ _______ _____ _____    ______ ____
ROOT
ATOM      8  C   UNL     1      44.420  19.007  19.272  0.00  0.00    -0.144 A 
ATOM      9  C   UNL     1      45.026  17.913  19.880  0.00  0.00    +0.212 A 
ATOM     10  C   UNL     1      44.356  17.244  20.922  0.00  0.00    -0.283 A 
ATOM     11  C   UNL     1      45.025  16.099  21.565  0.00  0.00    +0.443 A 
ATOM     12  C   UNL     1      46.463  15.932  21.256  0.00  0.00    -0.198 A 
ATOM     13  C   UNL     1      47.260  15.061  21.997  0.00  0.00    +0.091 A 
ATOM     14  C   UNL     1      48.601  14.932  21.688  0.00  0.00    +0.096 A 
ATOM     17  C   UNL     1      49.149  15.668  20.643  0.00  0.00    -0.070 A 
ATOM     24  C   UNL     1      48.365  16.532  19.902  0.00  0.00    +0.106 A 
ATOM     27  C   UNL     1      47.008  16.672  20.198  0.00  0.00    +0.125 A 
ATOM     28  O   UNL     1      44.431  15.336  22.306  0.00  0.00    -0.427 OA
ATOM     29  C   UNL     1      43.088  17.662  21.341  0.00  0.00    +0.243 A 
ATOM     32  C   UNL     1      42.499  18.759  20.720  0.00  0.00    -0.190 A 
ATOM     33  C   UNL     1      41.163  19.247  21.125  0.00  0.00    +0.057 C 
ATOM     34  C   UNL     1      40.522  20.076  20.306  0.00  0.00    -0.049 C 
ATOM     35  C   UNL     1      41.150  20.466  18.994  0.00  0.00    +0.146 C 
ATOM     36  C   UNL     1      40.755  19.446  17.923  0.00  0.00    +0.037 C 
ATOM     37  C   UNL     1      40.640  21.849  18.584  0.00  0.00    +0.088 C 
ATOM     38  O   UNL     1      42.572  20.503  19.107  0.00  0.00    -0.287 OA
ATOM     39  O   UNL     1      46.242  17.506  19.463  0.00  0.00    -0.208 OA
ATOM     40  C   UNL     1      43.174  19.433  19.686  0.00  0.00    +0.217 A 
ENDROOT
BRANCH  14  15
ATOM     15  O   UNL     1      49.386  14.084  22.405  0.00  0.00    -0.482 OA
ATOM     16  H   UNL     1      49.847  14.504  23.142  0.00  0.00    +0.392 HD
ENDBRANCH  14  15
BRANCH  24  25
ATOM     25  O   UNL     1      48.915  17.245  18.884  0.00  0.00    -0.472 OA
ATOM     26  H   UNL     1      48.735  16.882  18.006  0.00  0.00    +0.392 HD
ENDBRANCH  24  25
BRANCH  29  30
ATOM     30  O   UNL     1      42.443  17.008  22.338  0.00  0.00    -0.468 OA
ATOM     31  H   UNL     1      41.989  17.592  22.962  0.00  0.00    +0.401 HD
ENDBRANCH  29  30
BRANCH   8   7
ATOM      7  C   UNL     1      45.130  19.734  18.159  0.00  0.00    +0.105 C 
BRANCH   7   6
ATOM      6  C   UNL     1      45.816  20.981  18.721  0.00  0.00    +0.055 C 
BRANCH   6   5
ATOM      3  C   UNL     1      47.916  20.695  19.931  0.00  0.00    -0.127 C 
ATOM      4  C   UNL     1      47.118  20.713  21.208  0.00  0.00    +0.071 C 
ATOM      5  C   UNL     1      47.304  20.755  18.774  0.00  0.00    -0.050 C 
BRANCH   3   2
ATOM      1  C   UNL     1      50.001  20.967  18.615  0.00  0.00    +0.019 C 
ATOM      2  C   UNL     1      49.420  20.606  19.983  0.00  0.00    +0.044 C 
ENDBRANCH   3   2
ENDBRANCH   6   5
ENDBRANCH   7   6
ENDBRANCH   8   7
BRANCH  17  18
ATOM     18  C   UNL     1      50.613  15.523  20.315  0.00  0.00    +0.100 C 
BRANCH  18  19
ATOM     19  C   UNL     1      51.421  16.538  21.127  0.00  0.00    +0.056 C 
BRANCH  19  20
ATOM     20  C   UNL     1      51.684  17.760  20.285  0.00  0.00    -0.059 C 
ATOM     21  C   UNL     1      52.617  17.734  19.367  0.00  0.00    -0.126 C 
ATOM     22  C   UNL     1      52.783  18.902  18.428  0.00  0.00    +0.073 C 
ATOM     23  C   UNL     1      53.523  16.536  19.246  0.00  0.00    +0.073 C 
ENDBRANCH  19  20
ENDBRANCH  18  19
ENDBRANCH  17  18
TORSDOF 10
ENDMDL
MODEL 4
REMARK VINA RESULT:      -6.9      1.288      1.788
REMARK  Name = ZINC95485969
REMARK  16 active torsions:
REMARK  status: ('A' for Active; 'I' for Inactive)
REMARK    1  A    between atoms: C1_1  and  C2_2
REMARK    2  A    between atoms: C2_2  and  C3_3
REMARK    3  A    between atoms: C3_3  and  C31_37
REMARK    4  A    between atoms: C4_4  and  C5_5
REMARK    5  A    between atoms: C5_5  and  C6_6
REMARK    6  A    between atoms: C6_6  and  C7_7
REMARK    7  A    between atoms: C10_10  and  O2_19
REMARK    8  A    between atoms: C13_14  and  C16_17
REMARK    9  A    between atoms: C13_14  and  C17_18
REMARK   10  A    between atoms: C21_24  and  O6_36
REMARK   11  A    between atoms: C22_25  and  C25_30
REMARK   12  A    between atoms: C23_26  and  O5_29
REMARK   13  A    between atoms: C25_30  and  C26_31
REMARK   14  A    between atoms: C26_31  and  C27_32
REMARK   15  A    between atoms: C28_33  and  C29_34
REMARK   16  A    between atoms: C28_33  and  C30_35
REMARK                            x       y       z     vdW  Elec       q    Type
REMARK                         _______ _______ _______ _____ _____    ______ ____
ROOT
ATOM      8  C   UNL     1      44.864  19.591  19.486  0.00  0.00    -0.144 A 
ATOM      9  C   UNL     1      45.922  20.134  20.206  0.00  0.00    +0.212 A 
ATOM     10  C   UNL     1      45.853  21.473  20.632  0.00  0.00    -0.283 A 
ATOM     11  C   UNL     1      46.994  22.033  21.377  0.00  0.00    +0.443 A 
ATOM     12  C   UNL     1      48.235  21.228  21.361  0.00  0.00    -0.198 A 
ATOM     13  C   UNL     1      49.446  21.765  21.796  0.00  0.00    +0.091 A 
ATOM     14  C   UNL     1      50.589  20.988  21.763  0.00  0.00    +0.096 A 
ATOM     17  C   UNL     1      50.529  19.680  21.298  0.00  0.00    -0.070 A 
ATOM     24  C   UNL     1      49.333  19.139  20.867  0.00  0.00    +0.106 A 
ATOM     27  C   UNL     1      48.167  19.907  20.896  0.00  0.00    +0.125 A 
ATOM     28  O   UNL     1      46.921  23.095  21.969  0.00  0.00    -0.427 OA
ATOM     29  C   UNL     1      44.727  22.256  20.347  0.00  0.00    +0.243 A 
ATOM     32  C   UNL     1      43.679  21.695  19.626  0.00  0.00    -0.190 A 
ATOM     33  C   UNL     1      42.468  22.476  19.294  0.00  0.00    +0.057 C 
ATOM     34  C   UNL     1      41.385  21.817  18.893  0.00  0.00    -0.049 C 
ATOM     35  C   UNL     1      41.409  20.313  18.818  0.00  0.00    +0.146 C 
ATOM     36  C   UNL     1      40.997  19.734  20.173  0.00  0.00    +0.037 C 
ATOM     37  C   UNL     1      40.418  19.846  17.750  0.00  0.00    +0.088 C 
ATOM     38  O   UNL     1      42.715  19.846  18.484  0.00  0.00    -0.287 OA
ATOM     39  O   UNL     1      46.997  19.371  20.489  0.00  0.00    -0.208 OA
ATOM     40  C   UNL     1      43.754  20.359  19.191  0.00  0.00    +0.217 A 
ENDROOT
BRANCH  14  15
ATOM     15  O   UNL     1      51.773  21.505  22.186  0.00  0.00    -0.482 OA
ATOM     16  H   UNL     1      51.922  22.421  21.918  0.00  0.00    +0.392 HD
ENDBRANCH  14  15
BRANCH  24  25
ATOM     25  O   UNL     1      49.290  17.857  20.415  0.00  0.00    -0.472 OA
ATOM     26  H   UNL     1      48.895  17.762  19.538  0.00  0.00    +0.392 HD
ENDBRANCH  24  25
BRANCH  29  30
ATOM     30  O   UNL     1      44.660  23.543  20.769  0.00  0.00    -0.468 OA
ATOM     31  H   UNL     1      45.229  24.149  20.274  0.00  0.00    +0.401 HD
ENDBRANCH  29  30
BRANCH   8   7
ATOM      7  C   UNL     1      44.930  18.159  19.020  0.00  0.00    +0.105 C 
BRANCH   7   6
ATOM      6  C   UNL     1      45.922  18.045  17.861  0.00  0.00    +0.055 C 
BRANCH   6   5
ATOM      3  C   UNL     1      47.463  16.267  17.212  0.00  0.00    -0.127 C 
ATOM      4  C   UNL     1      48.533  17.319  17.080  0.00  0.00    +0.071 C 
ATOM      5  C   UNL     1      46.268  16.597  17.637  0.00  0.00    -0.050 C 
BRANCH   3   2
ATOM      1  C   UNL     1      47.268  13.915  17.974  0.00  0.00    +0.019 C 
ATOM      2  C   UNL     1      47.768  14.834  16.858  0.00  0.00    +0.044 C 
ENDBRANCH   3   2
ENDBRANCH   6   5
ENDBRANCH   7   6
ENDBRANCH   8   7
BRANCH  17  18
ATOM     18  C   UNL     1      51.782  18.842  21.263  0.00  0.00    +0.100 C 
BRANCH  18  19
ATOM     19  C   UNL     1      52.713  19.362  20.166  0.00  0.00    +0.056 C 
BRANCH  19  20
ATOM     20  C   UNL     1      52.374  18.693  18.859  0.00  0.00    -0.059 C 
ATOM     21  C   UNL     1      51.963  19.411  17.843  0.00  0.00    -0.126 C 
ATOM     22  C   UNL     1      51.764  18.766  16.496  0.00  0.00    +0.073 C 
ATOM     23  C   UNL     1      51.692  20.883  18.021  0.00  0.00    +0.073 C 
ENDBRANCH  19  20
ENDBRANCH  18  19
ENDBRANCH  17  18
TORSDOF 10
ENDMDL
MODEL 5
REMARK VINA RESULT:      -6.6      3.180      8.407
REMARK  Name = ZINC95485969
REMARK  16 active torsions:
REMARK  status: ('A' for Active; 'I' for Inactive)
REMARK    1  A    between atoms: C1_1  and  C2_2
REMARK    2  A    between atoms: C2_2  and  C3_3
REMARK    3  A    between atoms: C3_3  and  C31_37
REMARK    4  A    between atoms: C4_4  and  C5_5
REMARK    5  A    between atoms: C5_5  and  C6_6
REMARK    6  A    between atoms: C6_6  and  C7_7
REMARK    7  A    between atoms: C10_10  and  O2_19
REMARK    8  A    between atoms: C13_14  and  C16_17
REMARK    9  A    between atoms: C13_14  and  C17_18
REMARK   10  A    between atoms: C21_24  and  O6_36
REMARK   11  A    between atoms: C22_25  and  C25_30
REMARK   12  A    between atoms: C23_26  and  O5_29
REMARK   13  A    between atoms: C25_30  and  C26_31
REMARK   14  A    between atoms: C26_31  and  C27_32
REMARK   15  A    between atoms: C28_33  and  C29_34
REMARK   16  A    between atoms: C28_33  and  C30_35
REMARK                            x       y       z     vdW  Elec       q    Type
REMARK                         _______ _______ _______ _____ _____    ______ ____
ROOT
ATOM      8  C   UNL     1      49.352  15.458  17.720  0.00  0.00    -0.144 A 
ATOM      9  C   UNL     1      48.233  15.541  18.539  0.00  0.00    +0.212 A 
ATOM     10  C   UNL     1      47.153  14.664  18.325  0.00  0.00    -0.283 A 
ATOM     11  C   UNL     1      45.968  14.784  19.193  0.00  0.00    +0.443 A 
ATOM     12  C   UNL     1      45.898  16.004  20.027  0.00  0.00    -0.198 A 
ATOM     13  C   UNL     1      44.719  16.359  20.683  0.00  0.00    +0.091 A 
ATOM     14  C   UNL     1      44.683  17.508  21.450  0.00  0.00    +0.096 A 
ATOM     17  C   UNL     1      45.817  18.304  21.565  0.00  0.00    -0.070 A 
ATOM     24  C   UNL     1      46.990  17.958  20.921  0.00  0.00    +0.106 A 
ATOM     27  C   UNL     1      47.046  16.799  20.145  0.00  0.00    +0.125 A 
ATOM     28  O   UNL     1      45.100  13.929  19.223  0.00  0.00    -0.427 OA
ATOM     29  C   UNL     1      47.202  13.707  17.304  0.00  0.00    +0.243 A 
ATOM     32  C   UNL     1      48.331  13.640  16.495  0.00  0.00    -0.190 A 
ATOM     33  C   UNL     1      48.435  12.650  15.400  0.00  0.00    +0.057 C 
ATOM     34  C   UNL     1      49.635  12.418  14.876  0.00  0.00    -0.049 C 
ATOM     35  C   UNL     1      50.842  13.133  15.422  0.00  0.00    +0.146 C 
ATOM     36  C   UNL     1      51.428  12.321  16.579  0.00  0.00    +0.037 C 
ATOM     37  C   UNL     1      51.893  13.263  14.317  0.00  0.00    +0.088 C 
ATOM     38  O   UNL     1      50.489  14.434  15.891  0.00  0.00    -0.287 OA
ATOM     39  O   UNL     1      48.197  16.457  19.529  0.00  0.00    -0.208 OA
ATOM     40  C   UNL     1      49.405  14.524  16.704  0.00  0.00    +0.217 A 
ENDROOT
BRANCH  14  15
ATOM     15  O   UNL     1      43.538  17.860  22.092  0.00  0.00    -0.482 OA
ATOM     16  H   UNL     1      43.611  17.863  23.055  0.00  0.00    +0.392 HD
ENDBRANCH  14  15
BRANCH  24  25
ATOM     25  O   UNL     1      48.090  18.747  21.043  0.00  0.00    -0.472 OA
ATOM     26  H   UNL     1      48.315  18.971  21.956  0.00  0.00    +0.392 HD
ENDBRANCH  24  25
BRANCH  29  30
ATOM     30  O   UNL     1      46.164  12.857  17.108  0.00  0.00    -0.468 OA
ATOM     31  H   UNL     1      46.376  11.930  17.280  0.00  0.00    +0.401 HD
ENDBRANCH  29  30
BRANCH   8   7
ATOM      7  C   UNL     1      50.512  16.396  17.937  0.00  0.00    +0.105 C 
BRANCH   7   6
ATOM      6  C   UNL     1      50.414  17.565  16.955  0.00  0.00    +0.055 C 
BRANCH   6   5
ATOM      3  C   UNL     1      51.208  19.842  17.334  0.00  0.00    -0.127 C 
ATOM      4  C   UNL     1      51.992  19.722  16.054  0.00  0.00    +0.071 C 
ATOM      5  C   UNL     1      50.425  18.863  17.718  0.00  0.00    -0.050 C 
BRANCH   3   2
ATOM      1  C   UNL     1      50.890  20.779  19.608  0.00  0.00    +0.019 C 
ATOM      2  C   UNL     1      51.323  21.089  18.174  0.00  0.00    +0.044 C 
ENDBRANCH   3   2
ENDBRANCH   6   5
ENDBRANCH   7   6
ENDBRANCH   8   7
BRANCH  17  18
ATOM     18  C   UNL     1      45.767  19.558  22.401  0.00  0.00    +0.100 C 
BRANCH  18  19
ATOM     19  C   UNL     1      45.746  20.782  21.483  0.00  0.00    +0.056 C 
BRANCH  19  20
ATOM     20  C   UNL     1      44.348  20.997  20.964  0.00  0.00    -0.059 C 
ATOM     21  C   UNL     1      44.085  20.810  19.695  0.00  0.00    -0.126 C 
ATOM     22  C   UNL     1      42.662  20.883  19.201  0.00  0.00    +0.073 C 
ATOM     23  C   UNL     1      45.204  20.522  18.728  0.00  0.00    +0.073 C 
ENDBRANCH  19  20
ENDBRANCH  18  19
ENDBRANCH  17  18
TORSDOF 10
ENDMDL
MODEL 6
REMARK VINA RESULT:      -6.6      3.009      7.796
REMARK  Name = ZINC95485969
REMARK  16 active torsions:
REMARK  status: ('A' for Active; 'I' for Inactive)
REMARK    1  A    between atoms: C1_1  and  C2_2
REMARK    2  A    between atoms: C2_2  and  C3_3
REMARK    3  A    between atoms: C3_3  and  C31_37
REMARK    4  A    between atoms: C4_4  and  C5_5
REMARK    5  A    between atoms: C5_5  and  C6_6
REMARK    6  A    between atoms: C6_6  and  C7_7
REMARK    7  A    between atoms: C10_10  and  O2_19
REMARK    8  A    between atoms: C13_14  and  C16_17
REMARK    9  A    between atoms: C13_14  and  C17_18
REMARK   10  A    between atoms: C21_24  and  O6_36
REMARK   11  A    between atoms: C22_25  and  C25_30
REMARK   12  A    between atoms: C23_26  and  O5_29
REMARK   13  A    between atoms: C25_30  and  C26_31
REMARK   14  A    between atoms: C26_31  and  C27_32
REMARK   15  A    between atoms: C28_33  and  C29_34
REMARK   16  A    between atoms: C28_33  and  C30_35
REMARK                            x       y       z     vdW  Elec       q    Type
REMARK                         _______ _______ _______ _____ _____    ______ ____
ROOT
ATOM      8  C   UNL     1      47.928  14.486  16.997  0.00  0.00    -0.144 A 
ATOM      9  C   UNL     1      48.047  15.816  17.381  0.00  0.00    +0.212 A 
ATOM     10  C   UNL     1      49.308  16.441  17.327  0.00  0.00    -0.283 A 
ATOM     11  C   UNL     1      49.414  17.846  17.757  0.00  0.00    +0.443 A 
ATOM     12  C   UNL     1      48.245  18.392  18.481  0.00  0.00    -0.198 A 
ATOM     13  C   UNL     1      48.324  19.605  19.163  0.00  0.00    +0.091 A 
ATOM     14  C   UNL     1      47.216  20.085  19.835  0.00  0.00    +0.096 A 
ATOM     17  C   UNL     1      46.030  19.360  19.830  0.00  0.00    -0.070 A 
ATOM     24  C   UNL     1      45.942  18.158  19.155  0.00  0.00    +0.106 A 
ATOM     27  C   UNL     1      47.050  17.659  18.467  0.00  0.00    +0.125 A 
ATOM     28  O   UNL     1      50.405  18.518  17.530  0.00  0.00    -0.427 OA
ATOM     29  C   UNL     1      50.434  15.738  16.881  0.00  0.00    +0.243 A 
ATOM     32  C   UNL     1      50.294  14.407  16.502  0.00  0.00    -0.190 A 
ATOM     33  C   UNL     1      51.451  13.617  16.027  0.00  0.00    +0.057 C 
ATOM     34  C   UNL     1      51.211  12.476  15.388  0.00  0.00    -0.049 C 
ATOM     35  C   UNL     1      49.791  12.040  15.139  0.00  0.00    +0.146 C 
ATOM     36  C   UNL     1      49.306  12.635  13.816  0.00  0.00    +0.037 C 
ATOM     37  C   UNL     1      49.741  10.513  15.053  0.00  0.00    +0.088 C 
ATOM     38  O   UNL     1      48.937  12.480  16.195  0.00  0.00    -0.287 OA
ATOM     39  O   UNL     1      46.956  16.491  17.796  0.00  0.00    -0.208 OA
ATOM     40  C   UNL     1      49.036  13.782  16.567  0.00  0.00    +0.217 A 
ENDROOT
BRANCH  14  15
ATOM     15  O   UNL     1      47.286  21.268  20.502  0.00  0.00    -0.482 OA
ATOM     16  H   UNL     1      46.663  21.343  21.237  0.00  0.00    +0.392 HD
ENDBRANCH  14  15
BRANCH  24  25
ATOM     25  O   UNL     1      44.775  17.460  19.159  0.00  0.00    -0.472 OA
ATOM     26  H   UNL     1      44.364  17.374  18.288  0.00  0.00    +0.392 HD
ENDBRANCH  24  25
BRANCH  29  30
ATOM     30  O   UNL     1      51.644  16.347  16.821  0.00  0.00    -0.468 OA
ATOM     31  H   UNL     1      51.656  17.237  17.200  0.00  0.00    +0.401 HD
ENDBRANCH  29  30
BRANCH   8   7
ATOM      7  C   UNL     1      46.584  13.805  17.057  0.00  0.00    +0.105 C 
BRANCH   7   6
ATOM      6  C   UNL     1      46.463  13.028  18.369  0.00  0.00    +0.055 C 
BRANCH   6   5
ATOM      3  C   UNL     1      46.041  14.270  20.427  0.00  0.00    -0.127 C 
ATOM      4  C   UNL     1      47.521  14.213  20.699  0.00  0.00    +0.071 C 
ATOM      5  C   UNL     1      45.559  13.776  19.313  0.00  0.00    -0.050 C 
BRANCH   3   2
ATOM      1  C   UNL     1      45.852  16.007  22.187  0.00  0.00    +0.019 C 
ATOM      2  C   UNL     1      45.113  14.898  21.436  0.00  0.00    +0.044 C 
ENDBRANCH   3   2
ENDBRANCH   6   5
ENDBRANCH   7   6
ENDBRANCH   8   7
BRANCH  17  18
ATOM     18  C   UNL     1      44.828  19.890  20.569  0.00  0.00    +0.100 C 
BRANCH  18  19
ATOM     19  C   UNL     1      44.029  20.814  19.648  0.00  0.00    +0.056 C 
BRANCH  19  20
ATOM     20  C   UNL     1      42.803  20.091  19.151  0.00  0.00    -0.059 C 
ATOM     21  C   UNL     1      41.775  20.773  18.713  0.00  0.00    -0.126 C 
ATOM     22  C   UNL     1      40.609  20.056  18.082  0.00  0.00    +0.073 C 
ATOM     23  C   UNL     1      41.757  22.275  18.838  0.00  0.00    +0.073 C 
ENDBRANCH  19  20
ENDBRANCH  18  19
ENDBRANCH  17  18
TORSDOF 10
ENDMDL
MODEL 7
REMARK VINA RESULT:      -6.5      2.550      5.621
REMARK  Name = ZINC95485969
REMARK  16 active torsions:
REMARK  status: ('A' for Active; 'I' for Inactive)
REMARK    1  A    between atoms: C1_1  and  C2_2
REMARK    2  A    between atoms: C2_2  and  C3_3
REMARK    3  A    between atoms: C3_3  and  C31_37
REMARK    4  A    between atoms: C4_4  and  C5_5
REMARK    5  A    between atoms: C5_5  and  C6_6
REMARK    6  A    between atoms: C6_6  and  C7_7
REMARK    7  A    between atoms: C10_10  and  O2_19
REMARK    8  A    between atoms: C13_14  and  C16_17
REMARK    9  A    between atoms: C13_14  and  C17_18
REMARK   10  A    between atoms: C21_24  and  O6_36
REMARK   11  A    between atoms: C22_25  and  C25_30
REMARK   12  A    between atoms: C23_26  and  O5_29
REMARK   13  A    between atoms: C25_30  and  C26_31
REMARK   14  A    between atoms: C26_31  and  C27_32
REMARK   15  A    between atoms: C28_33  and  C29_34
REMARK   16  A    between atoms: C28_33  and  C30_35
REMARK                            x       y       z     vdW  Elec       q    Type
REMARK                         _______ _______ _______ _____ _____    ______ ____
ROOT
ATOM      8  C   UNL     1      46.933  20.092  19.434  0.00  0.00    -0.144 A 
ATOM      9  C   UNL     1      46.657  18.736  19.298  0.00  0.00    +0.212 A 
ATOM     10  C   UNL     1      45.712  18.135  20.150  0.00  0.00    -0.283 A 
ATOM     11  C   UNL     1      45.450  16.692  20.002  0.00  0.00    +0.443 A 
ATOM     12  C   UNL     1      46.413  15.943  19.165  0.00  0.00    -0.198 A 
ATOM     13  C   UNL     1      46.429  14.549  19.163  0.00  0.00    +0.091 A 
ATOM     14  C   UNL     1      47.345  13.877  18.375  0.00  0.00    +0.096 A 
ATOM     17  C   UNL     1      48.244  14.590  17.590  0.00  0.00    -0.070 A 
ATOM     24  C   UNL     1      48.233  15.972  17.585  0.00  0.00    +0.106 A 
ATOM     27  C   UNL     1      47.313  16.668  18.372  0.00  0.00    +0.125 A 
ATOM     28  O   UNL     1      44.498  16.150  20.535  0.00  0.00    -0.427 OA
ATOM     29  C   UNL     1      45.042  18.891  21.121  0.00  0.00    +0.243 A 
ATOM     32  C   UNL     1      45.332  20.246  21.241  0.00  0.00    -0.190 A 
ATOM     33  C   UNL     1      44.658  21.090  22.250  0.00  0.00    +0.057 C 
ATOM     34  C   UNL     1      44.732  22.411  22.114  0.00  0.00    -0.049 C 
ATOM     35  C   UNL     1      45.460  23.004  20.937  0.00  0.00    +0.146 C 
ATOM     36  C   UNL     1      44.489  23.152  19.764  0.00  0.00    +0.037 C 
ATOM     37  C   UNL     1      46.000  24.383  21.321  0.00  0.00    +0.088 C 
ATOM     38  O   UNL     1      46.548  22.166  20.544  0.00  0.00    -0.287 OA
ATOM     39  O   UNL     1      47.295  18.017  18.352  0.00  0.00    -0.208 OA
ATOM     40  C   UNL     1      46.286  20.843  20.395  0.00  0.00    +0.217 A 
ENDROOT
BRANCH  14  15
ATOM     15  O   UNL     1      47.366  12.518  18.367  0.00  0.00    -0.482 OA
ATOM     16  H   UNL     1      47.083  12.124  17.532  0.00  0.00    +0.392 HD
ENDBRANCH  14  15
BRANCH  24  25
ATOM     25  O   UNL     1      49.119  16.656  16.812  0.00  0.00    -0.472 OA
ATOM     26  H   UNL     1      49.069  16.441  15.871  0.00  0.00    +0.392 HD
ENDBRANCH  24  25
BRANCH  29  30
ATOM     30  O   UNL     1      44.125  18.309  21.932  0.00  0.00    -0.468 OA
ATOM     31  H   UNL     1      44.297  18.437  22.875  0.00  0.00    +0.401 HD
ENDBRANCH  29  30
BRANCH   8   7
ATOM      7  C   UNL     1      47.948  20.745  18.530  0.00  0.00    +0.105 C 
BRANCH   7   6
ATOM      6  C   UNL     1      49.300  20.809  19.244  0.00  0.00    +0.055 C 
BRANCH   6   5
ATOM      3  C   UNL     1      51.036  19.278  18.468  0.00  0.00    -0.127 C 
ATOM      4  C   UNL     1      50.596  18.322  19.546  0.00  0.00    +0.071 C 
ATOM      5  C   UNL     1      50.391  20.405  18.288  0.00  0.00    -0.050 C 
BRANCH   3   2
ATOM      1  C   UNL     1      51.783  18.935  16.128  0.00  0.00    +0.019 C 
ATOM      2  C   UNL     1      52.217  18.938  17.595  0.00  0.00    +0.044 C 
ENDBRANCH   3   2
ENDBRANCH   6   5
ENDBRANCH   7   6
ENDBRANCH   8   7
BRANCH  17  18
ATOM     18  C   UNL     1      49.242  13.849  16.737  0.00  0.00    +0.100 C 
BRANCH  18  19
ATOM     19  C   UNL     1      50.344  13.271  17.627  0.00  0.00    +0.056 C 
BRANCH  19  20
ATOM     20  C   UNL     1      51.489  14.247  17.707  0.00  0.00    -0.059 C 
ATOM     21  C   UNL     1      51.800  14.799  18.853  0.00  0.00    -0.126 C 
ATOM     22  C   UNL     1      53.032  15.660  18.965  0.00  0.00    +0.073 C 
ATOM     23  C   UNL     1      50.927  14.572  20.060  0.00  0.00    +0.073 C 
ENDBRANCH  19  20
ENDBRANCH  18  19
ENDBRANCH  17  18
TORSDOF 10
ENDMDL
MODEL 8
REMARK VINA RESULT:      -6.3      2.443      5.925
REMARK  Name = ZINC95485969
REMARK  16 active torsions:
REMARK  status: ('A' for Active; 'I' for Inactive)
REMARK    1  A    between atoms: C1_1  and  C2_2
REMARK    2  A    between atoms: C2_2  and  C3_3
REMARK    3  A    between atoms: C3_3  and  C31_37
REMARK    4  A    between atoms: C4_4  and  C5_5
REMARK    5  A    between atoms: C5_5  and  C6_6
REMARK    6  A    between atoms: C6_6  and  C7_7
REMARK    7  A    between atoms: C10_10  and  O2_19
REMARK    8  A    between atoms: C13_14  and  C16_17
REMARK    9  A    between atoms: C13_14  and  C17_18
REMARK   10  A    between atoms: C21_24  and  O6_36
REMARK   11  A    between atoms: C22_25  and  C25_30
REMARK   12  A    between atoms: C23_26  and  O5_29
REMARK   13  A    between atoms: C25_30  and  C26_31
REMARK   14  A    between atoms: C26_31  and  C27_32
REMARK   15  A    between atoms: C28_33  and  C29_34
REMARK   16  A    between atoms: C28_33  and  C30_35
REMARK                            x       y       z     vdW  Elec       q    Type
REMARK                         _______ _______ _______ _____ _____    ______ ____
ROOT
ATOM      8  C   UNL     1      46.718  19.386  19.225  0.00  0.00    -0.144 A 
ATOM      9  C   UNL     1      47.674  18.377  19.255  0.00  0.00    +0.212 A 
ATOM     10  C   UNL     1      48.795  18.513  20.095  0.00  0.00    -0.283 A 
ATOM     11  C   UNL     1      49.806  17.440  20.096  0.00  0.00    +0.443 A 
ATOM     12  C   UNL     1      49.700  16.450  19.002  0.00  0.00    -0.198 A 
ATOM     13  C   UNL     1      50.736  15.554  18.741  0.00  0.00    +0.091 A 
ATOM     14  C   UNL     1      50.609  14.645  17.707  0.00  0.00    +0.096 A 
ATOM     17  C   UNL     1      49.454  14.626  16.934  0.00  0.00    -0.070 A 
ATOM     24  C   UNL     1      48.421  15.509  17.187  0.00  0.00    +0.106 A 
ATOM     27  C   UNL     1      48.530  16.432  18.230  0.00  0.00    +0.125 A 
ATOM     28  O   UNL     1      50.675  17.372  20.947  0.00  0.00    -0.427 OA
ATOM     29  C   UNL     1      48.949  19.645  20.904  0.00  0.00    +0.243 A 
ATOM     32  C   UNL     1      47.982  20.644  20.859  0.00  0.00    -0.190 A 
ATOM     33  C   UNL     1      48.095  21.863  21.689  0.00  0.00    +0.057 C 
ATOM     34  C   UNL     1      47.013  22.618  21.846  0.00  0.00    -0.049 C 
ATOM     35  C   UNL     1      45.711  22.203  21.213  0.00  0.00    +0.146 C 
ATOM     36  C   UNL     1      44.950  21.289  22.174  0.00  0.00    +0.037 C 
ATOM     37  C   UNL     1      44.868  23.449  20.931  0.00  0.00    +0.088 C 
ATOM     38  O   UNL     1      45.946  21.508  19.988  0.00  0.00    -0.287 OA
ATOM     39  O   UNL     1      47.513  17.282  18.484  0.00  0.00    -0.208 OA
ATOM     40  C   UNL     1      46.867  20.512  20.011  0.00  0.00    +0.217 A 
ENDROOT
BRANCH  14  15
ATOM     15  O   UNL     1      51.615  13.768  17.447  0.00  0.00    -0.482 OA
ATOM     16  H   UNL     1      51.530  12.923  17.907  0.00  0.00    +0.392 HD
ENDBRANCH  14  15
BRANCH  24  25
ATOM     25  O   UNL     1      47.298  15.479  16.422  0.00  0.00    -0.472 OA
ATOM     26  H   UNL     1      47.422  15.065  15.557  0.00  0.00    +0.392 HD
ENDBRANCH  24  25
BRANCH  29  30
ATOM     30  O   UNL     1      50.026  19.767  21.719  0.00  0.00    -0.468 OA
ATOM     31  H   UNL     1      50.838  20.027  21.262  0.00  0.00    +0.401 HD
ENDBRANCH  29  30
BRANCH   8   7
ATOM      7  C   UNL     1      45.516  19.254  18.325  0.00  0.00    +0.105 C 
BRANCH   7   6
ATOM      6  C   UNL     1      44.295  18.862  19.158  0.00  0.00    +0.055 C 
BRANCH   6   5
ATOM      3  C   UNL     1      42.079  19.786  19.598  0.00  0.00    -0.127 C 
ATOM      4  C   UNL     1      42.029  18.929  20.836  0.00  0.00    +0.071 C 
ATOM      5  C   UNL     1      43.158  19.802  18.855  0.00  0.00    -0.050 C 
BRANCH   3   2
ATOM      1  C   UNL     1      41.365  21.994  18.723  0.00  0.00    +0.019 C 
ATOM      2  C   UNL     1      40.888  20.627  19.216  0.00  0.00    +0.044 C 
ENDBRANCH   3   2
ENDBRANCH   6   5
ENDBRANCH   7   6
ENDBRANCH   8   7
BRANCH  17  18
ATOM     18  C   UNL     1      49.326  13.634  15.806  0.00  0.00    +0.100 C 
BRANCH  18  19
ATOM     19  C   UNL     1      48.937  12.267  16.372  0.00  0.00    +0.056 C 
BRANCH  19  20
ATOM     20  C   UNL     1      47.472  12.018  16.122  0.00  0.00    -0.059 C 
ATOM     21  C   UNL     1      46.613  12.120  17.106  0.00  0.00    -0.126 C 
ATOM     22  C   UNL     1      45.135  12.016  16.830  0.00  0.00    +0.073 C 
ATOM     23  C   UNL     1      47.103  12.344  18.514  0.00  0.00    +0.073 C 
ENDBRANCH  19  20
ENDBRANCH  18  19
ENDBRANCH  17  18
TORSDOF 10
ENDMDL
MODEL 9
REMARK VINA RESULT:      -6.2      1.470      2.305
REMARK  Name = ZINC95485969
REMARK  16 active torsions:
REMARK  status: ('A' for Active; 'I' for Inactive)
REMARK    1  A    between atoms: C1_1  and  C2_2
REMARK    2  A    between atoms: C2_2  and  C3_3
REMARK    3  A    between atoms: C3_3  and  C31_37
REMARK    4  A    between atoms: C4_4  and  C5_5
REMARK    5  A    between atoms: C5_5  and  C6_6
REMARK    6  A    between atoms: C6_6  and  C7_7
REMARK    7  A    between atoms: C10_10  and  O2_19
REMARK    8  A    between atoms: C13_14  and  C16_17
REMARK    9  A    between atoms: C13_14  and  C17_18
REMARK   10  A    between atoms: C21_24  and  O6_36
REMARK   11  A    between atoms: C22_25  and  C25_30
REMARK   12  A    between atoms: C23_26  and  O5_29
REMARK   13  A    between atoms: C25_30  and  C26_31
REMARK   14  A    between atoms: C26_31  and  C27_32
REMARK   15  A    between atoms: C28_33  and  C29_34
REMARK   16  A    between atoms: C28_33  and  C30_35
REMARK                            x       y       z     vdW  Elec       q    Type
REMARK                         _______ _______ _______ _____ _____    ______ ____
ROOT
ATOM      8  C   UNL     1      45.581  19.364  18.711  0.00  0.00    -0.144 A 
ATOM      9  C   UNL     1      46.777  19.708  19.329  0.00  0.00    +0.212 A 
ATOM     10  C   UNL     1      46.848  20.892  20.087  0.00  0.00    -0.283 A 
ATOM     11  C   UNL     1      48.131  21.247  20.718  0.00  0.00    +0.443 A 
ATOM     12  C   UNL     1      49.310  20.478  20.262  0.00  0.00    -0.198 A 
ATOM     13  C   UNL     1      50.603  20.890  20.581  0.00  0.00    +0.091 A 
ATOM     14  C   UNL     1      51.685  20.155  20.135  0.00  0.00    +0.096 A 
ATOM     17  C   UNL     1      51.482  19.010  19.373  0.00  0.00    -0.070 A 
ATOM     24  C   UNL     1      50.203  18.593  19.054  0.00  0.00    +0.106 A 
ATOM     27  C   UNL     1      49.099  19.321  19.499  0.00  0.00    +0.125 A 
ATOM     28  O   UNL     1      48.216  22.119  21.564  0.00  0.00    -0.427 OA
ATOM     29  C   UNL     1      45.725  21.716  20.231  0.00  0.00    +0.243 A 
ATOM     32  C   UNL     1      44.537  21.355  19.603  0.00  0.00    -0.190 A 
ATOM     33  C   UNL     1      43.321  22.190  19.718  0.00  0.00    +0.057 C 
ATOM     34  C   UNL     1      42.155  21.651  19.376  0.00  0.00    -0.049 C 
ATOM     35  C   UNL     1      42.097  20.217  18.919  0.00  0.00    +0.146 C 
ATOM     36  C   UNL     1      41.918  19.306  20.135  0.00  0.00    +0.037 C 
ATOM     37  C   UNL     1      40.906  20.037  17.976  0.00  0.00    +0.088 C 
ATOM     38  O   UNL     1      43.297  19.858  18.234  0.00  0.00    -0.287 OA
ATOM     39  O   UNL     1      47.851  18.903  19.199  0.00  0.00    -0.208 OA
ATOM     40  C   UNL     1      44.471  20.177  18.837  0.00  0.00    +0.217 A 
ENDROOT
BRANCH  14  15
ATOM     15  O   UNL     1      52.949  20.550  20.442  0.00  0.00    -0.482 OA
ATOM     16  H   UNL     1      53.571  20.488  19.705  0.00  0.00    +0.392 HD
ENDBRANCH  14  15
BRANCH  24  25
ATOM     25  O   UNL     1      50.021  17.471  18.308  0.00  0.00    -0.472 OA
ATOM     26  H   UNL     1      50.840  17.009  18.084  0.00  0.00    +0.392 HD
ENDBRANCH  24  25
BRANCH  29  30
ATOM     30  O   UNL     1      45.794  22.850  20.970  0.00  0.00    -0.468 OA
ATOM     31  H   UNL     1      45.036  23.440  20.859  0.00  0.00    +0.401 HD
ENDBRANCH  29  30
BRANCH   8   7
ATOM      7  C   UNL     1      45.495  18.101  17.892  0.00  0.00    +0.105 C 
BRANCH   7   6
ATOM      6  C   UNL     1      45.509  16.887  18.823  0.00  0.00    +0.055 C 
BRANCH   6   5
ATOM      3  C   UNL     1      46.138  14.535  18.657  0.00  0.00    -0.127 C 
ATOM      4  C   UNL     1      45.274  14.277  19.863  0.00  0.00    +0.071 C 
ATOM      5  C   UNL     1      46.196  15.736  18.136  0.00  0.00    -0.050 C 
BRANCH   3   2
ATOM      1  C   UNL     1      47.354  13.794  16.626  0.00  0.00    +0.019 C 
ATOM      2  C   UNL     1      46.936  13.410  18.047  0.00  0.00    +0.044 C 
ENDBRANCH   3   2
ENDBRANCH   6   5
ENDBRANCH   7   6
ENDBRANCH   8   7
BRANCH  17  18
ATOM     18  C   UNL     1      52.668  18.215  18.888  0.00  0.00    +0.100 C 
BRANCH  18  19
ATOM     19  C   UNL     1      52.976  17.099  19.887  0.00  0.00    +0.056 C 
BRANCH  19  20
ATOM     20  C   UNL     1      54.069  16.219  19.335  0.00  0.00    -0.059 C 
ATOM     21  C   UNL     1      54.998  15.752  20.131  0.00  0.00    -0.126 C 
ATOM     22  C   UNL     1      56.005  14.757  19.612  0.00  0.00    +0.073 C 
ATOM     23  C   UNL     1      55.061  16.209  21.565  0.00  0.00    +0.073 C 
ENDBRANCH  19  20
ENDBRANCH  18  19
ENDBRANCH  17  18
TORSDOF 10
ENDMDL
