MODEL 1
REMARK VINA RESULT:      -6.8      0.000      0.000
REMARK  Name = ZINC05849399
REMARK  8 active torsions:
REMARK  status: ('A' for Active; 'I' for Inactive)
REMARK    1  A    between atoms: C1_1  and  C2_2
REMARK    2  A    between atoms: C7_7  and  C13_15
REMARK    3  A    between atoms: C8_8  and  O2_14
REMARK    4  A    between atoms: C10_10  and  O1_12
REMARK    5  A    between atoms: O1_12  and  C12_13
REMARK    6  A    between atoms: C18_20  and  O3_21
REMARK    7  A    between atoms: C19_22  and  C23_28
REMARK    8  A    between atoms: C20_24  and  C22_27
REMARK                            x       y       z     vdW  Elec       q    Type
REMARK                         _______ _______ _______ _____ _____    ______ ____
ROOT
ATOM      8  C   UNL     1      45.317  21.708  20.229  0.00  0.00    -0.042 A 
ATOM      9  C   UNL     1      44.869  22.968  19.837  0.00  0.00    +0.071 A 
ATOM     10  C   UNL     1      43.588  23.119  19.353  0.00  0.00    +0.024 A 
ATOM     11  C   UNL     1      42.737  22.027  19.251  0.00  0.00    -0.075 A 
ATOM     12  C   UNL     1      43.168  20.776  19.638  0.00  0.00    -0.156 A 
ATOM     13  C   UNL     1      42.276  19.565  19.554  0.00  0.00    +0.240 C 
ATOM     14  N   UNL     1      41.141  19.821  18.657  0.00  0.00    -0.510 N 
ATOM     15  H   UNL     1      41.483  19.920  17.694  0.00  0.00    +0.434 HD
ATOM     16  H   UNL     1      40.483  19.035  18.708  0.00  0.00    +0.435 HD
ATOM     17  C   UNL     1      40.452  21.061  19.061  0.00  0.00    +0.170 C 
ATOM     18  C   UNL     1      39.126  21.177  18.308  0.00  0.00    +0.093 C 
ATOM     19  C   UNL     1      41.753  19.226  20.950  0.00  0.00    +0.092 C 
ATOM     20  C   UNL     1      41.348  22.250  18.710  0.00  0.00    +0.129 C 
ATOM     21  C   UNL     1      44.460  20.611  20.127  0.00  0.00    +0.161 A 
ENDROOT
BRANCH   8   7
ATOM      1  C   UNL     1      52.901  20.233  22.073  0.00  0.00    +0.098 C 
ATOM      2  C   UNL     1      51.507  20.401  21.526  0.00  0.00    -0.022 A 
ATOM      3  C   UNL     1      50.574  21.065  22.261  0.00  0.00    -0.026 A 
ATOM      4  C   UNL     1      49.271  21.227  21.762  0.00  0.00    +0.010 A 
ATOM      5  C   UNL     1      48.290  21.910  22.505  0.00  0.00    +0.014 A 
ATOM      6  C   UNL     1      47.037  22.061  22.003  0.00  0.00    +0.051 A 
ATOM      7  C   UNL     1      46.695  21.533  20.749  0.00  0.00    -0.119 A 
ATOM     24  C   UNL     1      47.638  20.854  19.989  0.00  0.00    +0.187 A 
ATOM     27  C   UNL     1      48.942  20.693  20.491  0.00  0.00    -0.108 A 
ATOM     28  C   UNL     1      49.928  20.009  19.753  0.00  0.00    +0.161 A 
ATOM     31  C   UNL     1      51.194  19.872  20.277  0.00  0.00    -0.092 A 
BRANCH  24  25
ATOM     25  O   UNL     1      47.304  20.349  18.774  0.00  0.00    -0.469 OA
ATOM     26  H   UNL     1      47.971  19.758  18.397  0.00  0.00    +0.388 HD
ENDBRANCH  24  25
BRANCH  28  29
ATOM     29  O   UNL     1      49.632  19.491  18.533  0.00  0.00    -0.296 OA
ATOM     30  C   UNL     1      50.733  19.152  17.687  0.00  0.00    +0.244 C 
ENDBRANCH  28  29
ENDBRANCH   8   7
BRANCH  21  22
ATOM     22  O   UNL     1      44.889  19.378  20.504  0.00  0.00    -0.478 OA
ATOM     23  H   UNL     1      44.516  18.655  19.980  0.00  0.00    +0.393 HD
ENDBRANCH  21  22
TORSDOF 4
ENDMDL
MODEL 2
REMARK VINA RESULT:      -6.3      4.528      7.003
REMARK  Name = ZINC05849399
REMARK  8 active torsions:
REMARK  status: ('A' for Active; 'I' for Inactive)
REMARK    1  A    between atoms: C1_1  and  C2_2
REMARK    2  A    between atoms: C7_7  and  C13_15
REMARK    3  A    between atoms: C8_8  and  O2_14
REMARK    4  A    between atoms: C10_10  and  O1_12
REMARK    5  A    between atoms: O1_12  and  C12_13
REMARK    6  A    between atoms: C18_20  and  O3_21
REMARK    7  A    between atoms: C19_22  and  C23_28
REMARK    8  A    between atoms: C20_24  and  C22_27
REMARK                            x       y       z     vdW  Elec       q    Type
REMARK                         _______ _______ _______ _____ _____    ______ ____
ROOT
ATOM      8  C   UNL     1      45.991  17.010  19.510  0.00  0.00    -0.042 A 
ATOM      9  C   UNL     1      45.343  16.117  20.361  0.00  0.00    +0.071 A 
ATOM     10  C   UNL     1      45.226  14.792  20.002  0.00  0.00    +0.024 A 
ATOM     11  C   UNL     1      45.748  14.336  18.798  0.00  0.00    -0.075 A 
ATOM     12  C   UNL     1      46.395  15.210  17.950  0.00  0.00    -0.156 A 
ATOM     13  C   UNL     1      46.985  14.758  16.640  0.00  0.00    +0.240 C 
ATOM     14  N   UNL     1      46.421  13.461  16.239  0.00  0.00    -0.510 N 
ATOM     15  H   UNL     1      45.427  13.578  16.013  0.00  0.00    +0.434 HD
ATOM     16  H   UNL     1      46.922  13.113  15.414  0.00  0.00    +0.435 HD
ATOM     17  C   UNL     1      46.561  12.491  17.342  0.00  0.00    +0.170 C 
ATOM     18  C   UNL     1      46.228  11.088  16.831  0.00  0.00    +0.093 C 
ATOM     19  C   UNL     1      48.502  14.626  16.789  0.00  0.00    +0.092 C 
ATOM     20  C   UNL     1      45.587  12.877  18.455  0.00  0.00    +0.129 C 
ATOM     21  C   UNL     1      46.517  16.550  18.301  0.00  0.00    +0.161 A 
ENDROOT
BRANCH   8   7
ATOM      1  C   UNL     1      45.676  24.788  21.093  0.00  0.00    +0.098 C 
ATOM      2  C   UNL     1      45.524  23.340  20.704  0.00  0.00    -0.022 A 
ATOM      3  C   UNL     1      46.535  22.466  20.964  0.00  0.00    -0.026 A 
ATOM      4  C   UNL     1      46.405  21.114  20.606  0.00  0.00    +0.010 A 
ATOM      5  C   UNL     1      47.437  20.193  20.866  0.00  0.00    +0.014 A 
ATOM      6  C   UNL     1      47.291  18.889  20.517  0.00  0.00    +0.051 A 
ATOM      7  C   UNL     1      46.121  18.439  19.885  0.00  0.00    -0.119 A 
ATOM     24  C   UNL     1      45.083  19.320  19.614  0.00  0.00    +0.187 A 
ATOM     27  C   UNL     1      45.215  20.674  19.974  0.00  0.00    -0.108 A 
ATOM     28  C   UNL     1      44.186  21.600  19.716  0.00  0.00    +0.161 A 
ATOM     31  C   UNL     1      44.352  22.917  20.083  0.00  0.00    -0.092 A 
BRANCH  24  25
ATOM     25  O   UNL     1      43.951  18.880  19.007  0.00  0.00    -0.469 OA
ATOM     26  H   UNL     1      43.359  19.588  18.718  0.00  0.00    +0.388 HD
ENDBRANCH  24  25
BRANCH  28  29
ATOM     29  O   UNL     1      43.039  21.198  19.112  0.00  0.00    -0.296 OA
ATOM     30  C   UNL     1      41.970  22.144  19.051  0.00  0.00    +0.244 C 
ENDBRANCH  28  29
ENDBRANCH   8   7
BRANCH  21  22
ATOM     22  O   UNL     1      47.150  17.414  17.465  0.00  0.00    -0.478 OA
ATOM     23  H   UNL     1      46.577  17.792  16.783  0.00  0.00    +0.393 HD
ENDBRANCH  21  22
TORSDOF 4
ENDMDL
MODEL 3
REMARK VINA RESULT:      -6.0      6.445      9.689
REMARK  Name = ZINC05849399
REMARK  8 active torsions:
REMARK  status: ('A' for Active; 'I' for Inactive)
REMARK    1  A    between atoms: C1_1  and  C2_2
REMARK    2  A    between atoms: C7_7  and  C13_15
REMARK    3  A    between atoms: C8_8  and  O2_14
REMARK    4  A    between atoms: C10_10  and  O1_12
REMARK    5  A    between atoms: O1_12  and  C12_13
REMARK    6  A    between atoms: C18_20  and  O3_21
REMARK    7  A    between atoms: C19_22  and  C23_28
REMARK    8  A    between atoms: C20_24  and  C22_27
REMARK                            x       y       z     vdW  Elec       q    Type
REMARK                         _______ _______ _______ _____ _____    ______ ____
ROOT
ATOM      8  C   UNL     1      47.947  13.655  18.085  0.00  0.00    -0.042 A 
ATOM      9  C   UNL     1      49.302  13.668  18.408  0.00  0.00    +0.071 A 
ATOM     10  C   UNL     1      50.208  13.037  17.583  0.00  0.00    +0.024 A 
ATOM     11  C   UNL     1      49.784  12.387  16.432  0.00  0.00    -0.075 A 
ATOM     12  C   UNL     1      48.446  12.370  16.101  0.00  0.00    -0.156 A 
ATOM     13  C   UNL     1      47.942  11.685  14.857  0.00  0.00    +0.240 C 
ATOM     14  N   UNL     1      48.945  10.743  14.343  0.00  0.00    -0.510 N 
ATOM     15  H   UNL     1      49.053   9.966  15.004  0.00  0.00    +0.434 HD
ATOM     16  H   UNL     1      48.638  10.381  13.434  0.00  0.00    +0.435 HD
ATOM     17  C   UNL     1      50.241  11.430  14.182  0.00  0.00    +0.170 C 
ATOM     18  C   UNL     1      51.200  10.532  13.398  0.00  0.00    +0.093 C 
ATOM     19  C   UNL     1      47.640  12.738  13.789  0.00  0.00    +0.092 C 
ATOM     20  C   UNL     1      50.819  11.709  15.570  0.00  0.00    +0.129 C 
ATOM     21  C   UNL     1      47.522  13.002  16.926  0.00  0.00    +0.161 A 
ENDROOT
BRANCH   8   7
ATOM      1  C   UNL     1      42.770  18.130  22.120  0.00  0.00    +0.098 C 
ATOM      2  C   UNL     1      43.771  17.462  21.212  0.00  0.00    -0.022 A 
ATOM      3  C   UNL     1      44.178  16.191  21.482  0.00  0.00    -0.026 A 
ATOM      4  C   UNL     1      45.111  15.559  20.644  0.00  0.00    +0.010 A 
ATOM      5  C   UNL     1      45.545  14.246  20.903  0.00  0.00    +0.014 A 
ATOM      6  C   UNL     1      46.444  13.650  20.078  0.00  0.00    +0.051 A 
ATOM      7  C   UNL     1      46.962  14.329  18.965  0.00  0.00    -0.119 A 
ATOM     24  C   UNL     1      46.555  15.626  18.679  0.00  0.00    +0.187 A 
ATOM     27  C   UNL     1      45.621  16.257  19.520  0.00  0.00    -0.108 A 
ATOM     28  C   UNL     1      45.183  17.571  19.266  0.00  0.00    +0.161 A 
ATOM     31  C   UNL     1      44.267  18.156  20.112  0.00  0.00    -0.092 A 
BRANCH  24  25
ATOM     25  O   UNL     1      47.056  16.278  17.599  0.00  0.00    -0.469 OA
ATOM     26  H   UNL     1      47.591  15.721  17.017  0.00  0.00    +0.388 HD
ENDBRANCH  24  25
BRANCH  28  29
ATOM     29  O   UNL     1      45.660  18.256  18.195  0.00  0.00    -0.296 OA
ATOM     30  C   UNL     1      45.841  19.665  18.353  0.00  0.00    +0.244 C 
ENDBRANCH  28  29
ENDBRANCH   8   7
BRANCH  21  22
ATOM     22  O   UNL     1      46.202  12.983  16.605  0.00  0.00    -0.478 OA
ATOM     23  H   UNL     1      45.826  13.858  16.436  0.00  0.00    +0.393 HD
ENDBRANCH  21  22
TORSDOF 4
ENDMDL
MODEL 4
REMARK VINA RESULT:      -5.9      4.545      6.795
REMARK  Name = ZINC05849399
REMARK  8 active torsions:
REMARK  status: ('A' for Active; 'I' for Inactive)
REMARK    1  A    between atoms: C1_1  and  C2_2
REMARK    2  A    between atoms: C7_7  and  C13_15
REMARK    3  A    between atoms: C8_8  and  O2_14
REMARK    4  A    between atoms: C10_10  and  O1_12
REMARK    5  A    between atoms: O1_12  and  C12_13
REMARK    6  A    between atoms: C18_20  and  O3_21
REMARK    7  A    between atoms: C19_22  and  C23_28
REMARK    8  A    between atoms: C20_24  and  C22_27
REMARK                            x       y       z     vdW  Elec       q    Type
REMARK                         _______ _______ _______ _____ _____    ______ ____
ROOT
ATOM      8  C   UNL     1      45.472  16.979  19.347  0.00  0.00    -0.042 A 
ATOM      9  C   UNL     1      45.057  16.061  20.309  0.00  0.00    +0.071 A 
ATOM     10  C   UNL     1      45.218  14.711  20.081  0.00  0.00    +0.024 A 
ATOM     11  C   UNL     1      45.790  14.256  18.900  0.00  0.00    -0.075 A 
ATOM     12  C   UNL     1      46.207  15.157  17.942  0.00  0.00    -0.156 A 
ATOM     13  C   UNL     1      46.842  14.709  16.651  0.00  0.00    +0.240 C 
ATOM     14  N   UNL     1      46.559  13.288  16.402  0.00  0.00    -0.510 N 
ATOM     15  H   UNL     1      45.556  13.168  16.217  0.00  0.00    +0.434 HD
ATOM     16  H   UNL     1      47.098  12.972  15.588  0.00  0.00    +0.435 HD
ATOM     17  C   UNL     1      46.938  12.487  17.581  0.00  0.00    +0.170 C 
ATOM     18  C   UNL     1      46.900  11.000  17.221  0.00  0.00    +0.093 C 
ATOM     19  C   UNL     1      48.354  14.917  16.735  0.00  0.00    +0.092 C 
ATOM     20  C   UNL     1      45.937  12.769  18.702  0.00  0.00    +0.129 C 
ATOM     21  C   UNL     1      46.048  16.521  18.161  0.00  0.00    +0.161 A 
ENDROOT
BRANCH   8   7
ATOM      1  C   UNL     1      45.591  24.749  20.998  0.00  0.00    +0.098 C 
ATOM      2  C   UNL     1      45.784  23.271  20.768  0.00  0.00    -0.022 A 
ATOM      3  C   UNL     1      44.775  22.541  20.219  0.00  0.00    -0.026 A 
ATOM      4  C   UNL     1      44.943  21.164  20.001  0.00  0.00    +0.010 A 
ATOM      5  C   UNL     1      43.914  20.389  19.434  0.00  0.00    +0.014 A 
ATOM      6  C   UNL     1      44.097  19.060  19.226  0.00  0.00    +0.051 A 
ATOM      7  C   UNL     1      45.302  18.434  19.580  0.00  0.00    -0.119 A 
ATOM     24  C   UNL     1      46.338  19.168  20.141  0.00  0.00    +0.187 A 
ATOM     27  C   UNL     1      46.168  20.547  20.359  0.00  0.00    -0.108 A 
ATOM     28  C   UNL     1      47.194  21.328  20.926  0.00  0.00    +0.161 A 
ATOM     31  C   UNL     1      46.990  22.675  21.123  0.00  0.00    -0.092 A 
BRANCH  24  25
ATOM     25  O   UNL     1      47.504  18.560  20.478  0.00  0.00    -0.469 OA
ATOM     26  H   UNL     1      47.677  17.742  19.990  0.00  0.00    +0.388 HD
ENDBRANCH  24  25
BRANCH  28  29
ATOM     29  O   UNL     1      48.375  20.756  21.276  0.00  0.00    -0.296 OA
ATOM     30  C   UNL     1      48.965  21.183  22.505  0.00  0.00    +0.244 C 
ENDBRANCH  28  29
ENDBRANCH   8   7
BRANCH  21  22
ATOM     22  O   UNL     1      46.454  17.409  17.216  0.00  0.00    -0.478 OA
ATOM     23  H   UNL     1      46.272  17.128  16.309  0.00  0.00    +0.393 HD
ENDBRANCH  21  22
TORSDOF 4
ENDMDL
MODEL 5
REMARK VINA RESULT:      -5.7      6.051      7.886
REMARK  Name = ZINC05849399
REMARK  8 active torsions:
REMARK  status: ('A' for Active; 'I' for Inactive)
REMARK    1  A    between atoms: C1_1  and  C2_2
REMARK    2  A    between atoms: C7_7  and  C13_15
REMARK    3  A    between atoms: C8_8  and  O2_14
REMARK    4  A    between atoms: C10_10  and  O1_12
REMARK    5  A    between atoms: O1_12  and  C12_13
REMARK    6  A    between atoms: C18_20  and  O3_21
REMARK    7  A    between atoms: C19_22  and  C23_28
REMARK    8  A    between atoms: C20_24  and  C22_27
REMARK                            x       y       z     vdW  Elec       q    Type
REMARK                         _______ _______ _______ _____ _____    ______ ____
ROOT
ATOM      8  C   UNL     1      46.987  15.876  18.090  0.00  0.00    -0.042 A 
ATOM      9  C   UNL     1      46.496  17.046  17.515  0.00  0.00    +0.071 A 
ATOM     10  C   UNL     1      45.562  17.802  18.191  0.00  0.00    +0.024 A 
ATOM     11  C   UNL     1      45.105  17.409  19.442  0.00  0.00    -0.075 A 
ATOM     12  C   UNL     1      45.587  16.254  20.022  0.00  0.00    -0.156 A 
ATOM     13  C   UNL     1      45.127  15.795  21.381  0.00  0.00    +0.240 C 
ATOM     14  N   UNL     1      43.872  16.462  21.755  0.00  0.00    -0.510 N 
ATOM     15  H   UNL     1      43.118  16.140  21.138  0.00  0.00    +0.434 HD
ATOM     16  H   UNL     1      43.641  16.232  22.728  0.00  0.00    +0.435 HD
ATOM     17  C   UNL     1      44.023  17.923  21.621  0.00  0.00    +0.170 C 
ATOM     18  C   UNL     1      42.822  18.620  22.265  0.00  0.00    +0.093 C 
ATOM     19  C   UNL     1      46.204  16.124  22.416  0.00  0.00    +0.092 C 
ATOM     20  C   UNL     1      44.081  18.272  20.133  0.00  0.00    +0.129 C 
ATOM     21  C   UNL     1      46.528  15.483  19.348  0.00  0.00    +0.161 A 
ENDROOT
BRANCH   8   7
ATOM      1  C   UNL     1      51.504  10.852  13.913  0.00  0.00    +0.098 C 
ATOM      2  C   UNL     1      50.469  11.675  14.636  0.00  0.00    -0.022 A 
ATOM      3  C   UNL     1      50.860  12.763  15.355  0.00  0.00    -0.026 A 
ATOM      4  C   UNL     1      49.905  13.537  16.034  0.00  0.00    +0.010 A 
ATOM      5  C   UNL     1      50.286  14.666  16.782  0.00  0.00    +0.014 A 
ATOM      6  C   UNL     1      49.347  15.405  17.428  0.00  0.00    +0.051 A 
ATOM      7  C   UNL     1      47.990  15.054  17.371  0.00  0.00    -0.119 A 
ATOM     24  C   UNL     1      47.578  13.947  16.641  0.00  0.00    +0.187 A 
ATOM     27  C   UNL     1      48.537  13.173  15.962  0.00  0.00    -0.108 A 
ATOM     28  C   UNL     1      48.161  12.042  15.211  0.00  0.00    +0.161 A 
ATOM     31  C   UNL     1      49.128  11.309  14.560  0.00  0.00    -0.092 A 
BRANCH  24  25
ATOM     25  O   UNL     1      46.263  13.613  16.585  0.00  0.00    -0.469 OA
ATOM     26  H   UNL     1      45.665  14.374  16.584  0.00  0.00    +0.388 HD
ENDBRANCH  24  25
BRANCH  28  29
ATOM     29  O   UNL     1      46.856  11.677  15.130  0.00  0.00    -0.296 OA
ATOM     30  C   UNL     1      46.532  10.335  15.499  0.00  0.00    +0.244 C 
ENDBRANCH  28  29
ENDBRANCH   8   7
BRANCH  21  22
ATOM     22  O   UNL     1      47.000  14.343  19.916  0.00  0.00    -0.478 OA
ATOM     23  H   UNL     1      46.326  13.661  20.047  0.00  0.00    +0.393 HD
ENDBRANCH  21  22
TORSDOF 4
ENDMDL
MODEL 6
REMARK VINA RESULT:      -5.5      5.425      9.401
REMARK  Name = ZINC05849399
REMARK  8 active torsions:
REMARK  status: ('A' for Active; 'I' for Inactive)
REMARK    1  A    between atoms: C1_1  and  C2_2
REMARK    2  A    between atoms: C7_7  and  C13_15
REMARK    3  A    between atoms: C8_8  and  O2_14
REMARK    4  A    between atoms: C10_10  and  O1_12
REMARK    5  A    between atoms: O1_12  and  C12_13
REMARK    6  A    between atoms: C18_20  and  O3_21
REMARK    7  A    between atoms: C19_22  and  C23_28
REMARK    8  A    between atoms: C20_24  and  C22_27
REMARK                            x       y       z     vdW  Elec       q    Type
REMARK                         _______ _______ _______ _____ _____    ______ ____
ROOT
ATOM      8  C   UNL     1      50.510  16.463  18.388  0.00  0.00    -0.042 A 
ATOM      9  C   UNL     1      51.288  16.230  19.520  0.00  0.00    +0.071 A 
ATOM     10  C   UNL     1      51.911  17.284  20.151  0.00  0.00    +0.024 A 
ATOM     11  C   UNL     1      51.769  18.580  19.671  0.00  0.00    -0.075 A 
ATOM     12  C   UNL     1      50.999  18.822  18.554  0.00  0.00    -0.156 A 
ATOM     13  C   UNL     1      50.809  20.212  18.003  0.00  0.00    +0.240 C 
ATOM     14  N   UNL     1      51.842  21.119  18.524  0.00  0.00    -0.510 N 
ATOM     15  H   UNL     1      52.756  20.846  18.147  0.00  0.00    +0.434 HD
ATOM     16  H   UNL     1      51.626  22.081  18.239  0.00  0.00    +0.435 HD
ATOM     17  C   UNL     1      51.879  21.043  19.997  0.00  0.00    +0.170 C 
ATOM     18  C   UNL     1      52.752  22.175  20.544  0.00  0.00    +0.093 C 
ATOM     19  C   UNL     1      49.429  20.731  18.407  0.00  0.00    +0.092 C 
ATOM     20  C   UNL     1      52.477  19.694  20.399  0.00  0.00    +0.129 C 
ATOM     21  C   UNL     1      50.367  17.766  17.907  0.00  0.00    +0.161 A 
ENDROOT
BRANCH   8   7
ATOM      1  C   UNL     1      46.031  10.659  15.328  0.00  0.00    +0.098 C 
ATOM      2  C   UNL     1      46.697  11.809  16.039  0.00  0.00    -0.022 A 
ATOM      3  C   UNL     1      47.978  12.142  15.722  0.00  0.00    -0.026 A 
ATOM      4  C   UNL     1      48.609  13.211  16.379  0.00  0.00    +0.010 A 
ATOM      5  C   UNL     1      49.933  13.574  16.068  0.00  0.00    +0.014 A 
ATOM      6  C   UNL     1      50.524  14.614  16.710  0.00  0.00    +0.051 A 
ATOM      7  C   UNL     1      49.837  15.335  17.699  0.00  0.00    -0.119 A 
ATOM     24  C   UNL     1      48.530  15.005  18.031  0.00  0.00    +0.187 A 
ATOM     27  C   UNL     1      47.900  13.934  17.371  0.00  0.00    -0.108 A 
ATOM     28  C   UNL     1      46.575  13.566  17.679  0.00  0.00    +0.161 A 
ATOM     31  C   UNL     1      45.992  12.512  17.012  0.00  0.00    -0.092 A 
BRANCH  24  25
ATOM     25  O   UNL     1      47.867  15.708  18.984  0.00  0.00    -0.469 OA
ATOM     26  H   UNL     1      47.717  16.636  18.755  0.00  0.00    +0.388 HD
ENDBRANCH  24  25
BRANCH  28  29
ATOM     29  O   UNL     1      45.879  14.246  18.626  0.00  0.00    -0.296 OA
ATOM     30  C   UNL     1      45.147  13.469  19.577  0.00  0.00    +0.244 C 
ENDBRANCH  28  29
ENDBRANCH   8   7
BRANCH  21  22
ATOM     22  O   UNL     1      49.611  18.002  16.803  0.00  0.00    -0.478 OA
ATOM     23  H   UNL     1      48.913  17.348  16.658  0.00  0.00    +0.393 HD
ENDBRANCH  21  22
TORSDOF 4
ENDMDL
MODEL 7
REMARK VINA RESULT:      -5.5      5.730      9.186
REMARK  Name = ZINC05849399
REMARK  8 active torsions:
REMARK  status: ('A' for Active; 'I' for Inactive)
REMARK    1  A    between atoms: C1_1  and  C2_2
REMARK    2  A    between atoms: C7_7  and  C13_15
REMARK    3  A    between atoms: C8_8  and  O2_14
REMARK    4  A    between atoms: C10_10  and  O1_12
REMARK    5  A    between atoms: O1_12  and  C12_13
REMARK    6  A    between atoms: C18_20  and  O3_21
REMARK    7  A    between atoms: C19_22  and  C23_28
REMARK    8  A    between atoms: C20_24  and  C22_27
REMARK                            x       y       z     vdW  Elec       q    Type
REMARK                         _______ _______ _______ _____ _____    ______ ____
ROOT
ATOM      8  C   UNL     1      49.562  16.313  18.807  0.00  0.00    -0.042 A 
ATOM      9  C   UNL     1      50.574  16.008  19.715  0.00  0.00    +0.071 A 
ATOM     10  C   UNL     1      51.392  17.010  20.190  0.00  0.00    +0.024 A 
ATOM     11  C   UNL     1      51.218  18.323  19.773  0.00  0.00    -0.075 A 
ATOM     12  C   UNL     1      50.217  18.637  18.877  0.00  0.00    -0.156 A 
ATOM     13  C   UNL     1      49.985  20.049  18.405  0.00  0.00    +0.240 C 
ATOM     14  N   UNL     1      51.165  20.883  18.672  0.00  0.00    -0.510 N 
ATOM     15  H   UNL     1      51.944  20.570  18.082  0.00  0.00    +0.434 HD
ATOM     16  H   UNL     1      50.945  21.862  18.458  0.00  0.00    +0.435 HD
ATOM     17  C   UNL     1      51.550  20.767  20.091  0.00  0.00    +0.170 C 
ATOM     18  C   UNL     1      52.595  21.835  20.424  0.00  0.00    +0.093 C 
ATOM     19  C   UNL     1      48.776  20.633  19.136  0.00  0.00    +0.092 C 
ATOM     20  C   UNL     1      52.144  19.378  20.322  0.00  0.00    +0.129 C 
ATOM     21  C   UNL     1      49.386  17.634  18.390  0.00  0.00    +0.161 A 
ENDROOT
BRANCH   8   7
ATOM      1  C   UNL     1      45.601  10.412  15.258  0.00  0.00    +0.098 C 
ATOM      2  C   UNL     1      46.515  11.495  15.771  0.00  0.00    -0.022 A 
ATOM      3  C   UNL     1      46.143  12.228  16.856  0.00  0.00    -0.026 A 
ATOM      4  C   UNL     1      46.986  13.240  17.343  0.00  0.00    +0.010 A 
ATOM      5  C   UNL     1      46.622  14.009  18.464  0.00  0.00    +0.014 A 
ATOM      6  C   UNL     1      47.454  14.980  18.923  0.00  0.00    +0.051 A 
ATOM      7  C   UNL     1      48.676  15.242  18.287  0.00  0.00    -0.119 A 
ATOM     24  C   UNL     1      49.067  14.502  17.179  0.00  0.00    +0.187 A 
ATOM     27  C   UNL     1      48.221  13.489  16.694  0.00  0.00    -0.108 A 
ATOM     28  C   UNL     1      48.580  12.716  15.572  0.00  0.00    +0.161 A 
ATOM     31  C   UNL     1      47.725  11.732  15.126  0.00  0.00    -0.092 A 
BRANCH  24  25
ATOM     25  O   UNL     1      50.253  14.756  16.570  0.00  0.00    -0.469 OA
ATOM     26  H   UNL     1      50.969  14.164  16.841  0.00  0.00    +0.388 HD
ENDBRANCH  24  25
BRANCH  28  29
ATOM     29  O   UNL     1      49.758  12.939  14.936  0.00  0.00    -0.296 OA
ATOM     30  C   UNL     1      49.766  12.795  13.514  0.00  0.00    +0.244 C 
ENDBRANCH  28  29
ENDBRANCH   8   7
BRANCH  21  22
ATOM     22  O   UNL     1      48.403  17.940  17.504  0.00  0.00    -0.478 OA
ATOM     23  H   UNL     1      48.427  18.855  17.190  0.00  0.00    +0.393 HD
ENDBRANCH  21  22
TORSDOF 4
ENDMDL
MODEL 8
REMARK VINA RESULT:      -5.5      4.669      7.426
REMARK  Name = ZINC05849399
REMARK  8 active torsions:
REMARK  status: ('A' for Active; 'I' for Inactive)
REMARK    1  A    between atoms: C1_1  and  C2_2
REMARK    2  A    between atoms: C7_7  and  C13_15
REMARK    3  A    between atoms: C8_8  and  O2_14
REMARK    4  A    between atoms: C10_10  and  O1_12
REMARK    5  A    between atoms: O1_12  and  C12_13
REMARK    6  A    between atoms: C18_20  and  O3_21
REMARK    7  A    between atoms: C19_22  and  C23_28
REMARK    8  A    between atoms: C20_24  and  C22_27
REMARK                            x       y       z     vdW  Elec       q    Type
REMARK                         _______ _______ _______ _____ _____    ______ ____
ROOT
ATOM      8  C   UNL     1      47.933  16.749  18.470  0.00  0.00    -0.042 A 
ATOM      9  C   UNL     1      48.834  16.619  17.415  0.00  0.00    +0.071 A 
ATOM     10  C   UNL     1      49.100  15.372  16.892  0.00  0.00    +0.024 A 
ATOM     11  C   UNL     1      48.478  14.241  17.406  0.00  0.00    -0.075 A 
ATOM     12  C   UNL     1      47.583  14.359  18.448  0.00  0.00    -0.156 A 
ATOM     13  C   UNL     1      46.878  13.161  19.031  0.00  0.00    +0.240 C 
ATOM     14  N   UNL     1      47.570  11.921  18.654  0.00  0.00    -0.510 N 
ATOM     15  H   UNL     1      48.488  11.890  19.112  0.00  0.00    +0.434 HD
ATOM     16  H   UNL     1      47.010  11.115  18.954  0.00  0.00    +0.435 HD
ATOM     17  C   UNL     1      47.751  11.873  17.191  0.00  0.00    +0.170 C 
ATOM     18  C   UNL     1      48.217  10.474  16.781  0.00  0.00    +0.093 C 
ATOM     19  C   UNL     1      45.441  13.119  18.510  0.00  0.00    +0.092 C 
ATOM     20  C   UNL     1      48.811  12.903  16.798  0.00  0.00    +0.129 C 
ATOM     21  C   UNL     1      47.308  15.612  18.985  0.00  0.00    +0.161 A 
ENDROOT
BRANCH   8   7
ATOM      1  C   UNL     1      45.388  23.825  21.029  0.00  0.00    +0.098 C 
ATOM      2  C   UNL     1      45.665  22.466  20.439  0.00  0.00    -0.022 A 
ATOM      3  C   UNL     1      46.860  21.861  20.682  0.00  0.00    -0.026 A 
ATOM      4  C   UNL     1      47.130  20.595  20.137  0.00  0.00    +0.010 A 
ATOM      5  C   UNL     1      48.358  19.950  20.375  0.00  0.00    +0.014 A 
ATOM      6  C   UNL     1      48.599  18.724  19.843  0.00  0.00    +0.051 A 
ATOM      7  C   UNL     1      47.641  18.085  19.042  0.00  0.00    -0.119 A 
ATOM     24  C   UNL     1      46.418  18.692  18.787  0.00  0.00    +0.187 A 
ATOM     27  C   UNL     1      46.150  19.960  19.334  0.00  0.00    -0.108 A 
ATOM     28  C   UNL     1      44.923  20.611  19.098  0.00  0.00    +0.161 A 
ATOM     31  C   UNL     1      44.696  21.851  19.652  0.00  0.00    -0.092 A 
BRANCH  24  25
ATOM     25  O   UNL     1      45.492  18.069  18.015  0.00  0.00    -0.469 OA
ATOM     26  H   UNL     1      45.317  18.514  17.174  0.00  0.00    +0.388 HD
ENDBRANCH  24  25
BRANCH  28  29
ATOM     29  O   UNL     1      43.971  20.019  18.332  0.00  0.00    -0.296 OA
ATOM     30  C   UNL     1      42.611  20.191  18.737  0.00  0.00    +0.244 C 
ENDBRANCH  28  29
ENDBRANCH   8   7
BRANCH  21  22
ATOM     22  O   UNL     1      46.430  15.729  20.015  0.00  0.00    -0.478 OA
ATOM     23  H   UNL     1      46.850  15.827  20.881  0.00  0.00    +0.393 HD
ENDBRANCH  21  22
TORSDOF 4
ENDMDL
MODEL 9
REMARK VINA RESULT:      -5.4      5.280      7.028
REMARK  Name = ZINC05849399
REMARK  8 active torsions:
REMARK  status: ('A' for Active; 'I' for Inactive)
REMARK    1  A    between atoms: C1_1  and  C2_2
REMARK    2  A    between atoms: C7_7  and  C13_15
REMARK    3  A    between atoms: C8_8  and  O2_14
REMARK    4  A    between atoms: C10_10  and  O1_12
REMARK    5  A    between atoms: O1_12  and  C12_13
REMARK    6  A    between atoms: C18_20  and  O3_21
REMARK    7  A    between atoms: C19_22  and  C23_28
REMARK    8  A    between atoms: C20_24  and  C22_27
REMARK                            x       y       z     vdW  Elec       q    Type
REMARK                         _______ _______ _______ _____ _____    ______ ____
ROOT
ATOM      8  C   UNL     1      47.649  16.004  18.331  0.00  0.00    -0.042 A 
ATOM      9  C   UNL     1      46.527  15.609  19.057  0.00  0.00    +0.071 A 
ATOM     10  C   UNL     1      45.842  14.470  18.691  0.00  0.00    +0.024 A 
ATOM     11  C   UNL     1      46.258  13.712  17.604  0.00  0.00    -0.075 A 
ATOM     12  C   UNL     1      47.368  14.093  16.880  0.00  0.00    -0.156 A 
ATOM     13  C   UNL     1      47.861  13.296  15.700  0.00  0.00    +0.240 C 
ATOM     14  N   UNL     1      46.810  12.391  15.213  0.00  0.00    -0.510 N 
ATOM     15  H   UNL     1      46.044  12.944  14.812  0.00  0.00    +0.434 HD
ATOM     16  H   UNL     1      47.201  11.773  14.494  0.00  0.00    +0.435 HD
ATOM     17  C   UNL     1      46.293  11.577  16.329  0.00  0.00    +0.170 C 
ATOM     18  C   UNL     1      45.407  10.459  15.776  0.00  0.00    +0.093 C 
ATOM     19  C   UNL     1      49.082  12.476  16.120  0.00  0.00    +0.092 C 
ATOM     20  C   UNL     1      45.468  12.479  17.247  0.00  0.00    +0.129 C 
ATOM     21  C   UNL     1      48.067  15.241  17.239  0.00  0.00    +0.161 A 
ENDROOT
BRANCH   8   7
ATOM      1  C   UNL     1      52.448  21.879  20.687  0.00  0.00    +0.098 C 
ATOM      2  C   UNL     1      51.709  20.623  20.304  0.00  0.00    -0.022 A 
ATOM      3  C   UNL     1      50.456  20.716  19.779  0.00  0.00    -0.026 A 
ATOM      4  C   UNL     1      49.757  19.553  19.419  0.00  0.00    +0.010 A 
ATOM      5  C   UNL     1      48.462  19.625  18.874  0.00  0.00    +0.014 A 
ATOM      6  C   UNL     1      47.804  18.488  18.527  0.00  0.00    +0.051 A 
ATOM      7  C   UNL     1      48.393  17.229  18.714  0.00  0.00    -0.119 A 
ATOM     24  C   UNL     1      49.670  17.121  19.248  0.00  0.00    +0.187 A 
ATOM     27  C   UNL     1      50.368  18.287  19.608  0.00  0.00    -0.108 A 
ATOM     28  C   UNL     1      51.665  18.221  20.155  0.00  0.00    +0.161 A 
ATOM     31  C   UNL     1      52.317  19.386  20.495  0.00  0.00    -0.092 A 
BRANCH  24  25
ATOM     25  O   UNL     1      50.238  15.900  19.423  0.00  0.00    -0.469 OA
ATOM     26  H   UNL     1      51.197  15.928  19.552  0.00  0.00    +0.388 HD
ENDBRANCH  24  25
BRANCH  28  29
ATOM     29  O   UNL     1      52.267  17.019  20.344  0.00  0.00    -0.296 OA
ATOM     30  C   UNL     1      53.472  16.775  19.616  0.00  0.00    +0.244 C 
ENDBRANCH  28  29
ENDBRANCH   8   7
BRANCH  21  22
ATOM     22  O   UNL     1      49.158  15.621  16.524  0.00  0.00    -0.478 OA
ATOM     23  H   UNL     1      49.631  16.376  16.901  0.00  0.00    +0.393 HD
ENDBRANCH  21  22
TORSDOF 4
ENDMDL
