MODEL 1
REMARK VINA RESULT:      -5.2      0.000      0.000
REMARK  Name = ZINC95486346
REMARK  11 active torsions:
REMARK  status: ('A' for Active; 'I' for Inactive)
REMARK    1  A    between atoms: C1_1  and  O1_2
REMARK    2  A    between atoms: O1_2  and  C2_3
REMARK    3  A    between atoms: C7_8  and  O2_9
REMARK    4  A    between atoms: C12_15  and  O6_27
REMARK    5  A    between atoms: C13_16  and  O4_24
REMARK    6  A    between atoms: C14_17  and  O3_22
REMARK    7  A    between atoms: O3_22  and  C18_23
REMARK    8  A    between atoms: O4_24  and  C19_25
REMARK    9  A    between atoms: C19_25  and  O5_26
REMARK   10  A    between atoms: O6_27  and  C20_28
REMARK   11  A    between atoms: C20_28  and  O7_29
REMARK                            x       y       z     vdW  Elec       q    Type
REMARK                         _______ _______ _______ _____ _____    ______ ____
ROOT
ATOM      3  C   UNL     1      45.160  21.455  19.415  0.00  0.00    +0.098 A 
ATOM      4  C   UNL     1      46.354  20.823  19.115  0.00  0.00    -0.018 A 
ATOM      5  C   UNL     1      46.379  19.445  18.928  0.00  0.00    -0.017 A 
ATOM      6  C   UNL     1      45.211  18.698  19.070  0.00  0.00    -0.090 A 
ATOM      7  C   UNL     1      45.262  17.201  18.933  0.00  0.00    +0.109 C 
ATOM      8  C   UNL     1      46.259  16.795  17.850  0.00  0.00    +0.236 C 
ATOM      9  C   UNL     1      47.600  17.439  18.086  0.00  0.00    -0.087 A 
ATOM     10  C   UNL     1      48.767  16.774  17.779  0.00  0.00    -0.083 A 
ATOM     11  C   UNL     1      48.772  15.400  17.174  0.00  0.00    +0.055 C 
ATOM     12  C   UNL     1      47.374  14.906  16.842  0.00  0.00    +0.224 C 
ATOM     13  C   UNL     1      49.992  17.414  18.001  0.00  0.00    +0.086 A 
ATOM     16  C   UNL     1      50.046  18.701  18.515  0.00  0.00    +0.078 A 
ATOM     21  C   UNL     1      48.869  19.375  18.813  0.00  0.00    +0.109 A 
ATOM     26  N   UNL     1      46.423  15.335  17.871  0.00  0.00    -0.673 NA
ATOM     27  H   UNL     1      46.704  15.015  18.786  0.00  0.00    +0.346 HD
ATOM     28  C   UNL     1      44.021  19.333  19.361  0.00  0.00    +0.038 A 
ATOM     29  C   UNL     1      47.644  18.744  18.597  0.00  0.00    -0.047 A 
ATOM     30  C   UNL     1      43.991  20.707  19.539  0.00  0.00    +0.084 A 
ENDROOT
BRANCH   3   2
ATOM      1  C   UNL     1      45.470  23.291  20.893  0.00  0.00    +0.239 C 
ATOM      2  O   UNL     1      45.129  22.803  19.595  0.00  0.00    -0.306 OA
ENDBRANCH   3   2
BRANCH  13  14
ATOM     14  O   UNL     1      51.146  16.755  17.715  0.00  0.00    -0.330 OA
ATOM     15  C   UNL     1      51.796  16.086  18.797  0.00  0.00    +0.232 C 
ENDBRANCH  13  14
BRANCH  30  31
ATOM     31  O   UNL     1      42.817  21.329  19.829  0.00  0.00    -0.486 OA
ATOM     32  H   UNL     1      42.198  20.786  20.334  0.00  0.00    +0.388 HD
ENDBRANCH  30  31
BRANCH  16  17
ATOM     17  O   UNL     1      51.249  19.302  18.726  0.00  0.00    -0.287 OA
BRANCH  17  18
ATOM     18  C   UNL     1      51.751  20.132  17.677  0.00  0.00    +0.387 C 
BRANCH  18  19
ATOM     19  O   UNL     1      51.599  21.505  18.040  0.00  0.00    -0.582 OA
ATOM     20  H   UNL     1      52.364  21.879  18.498  0.00  0.00    +0.391 HD
ENDBRANCH  18  19
ENDBRANCH  17  18
ENDBRANCH  16  17
BRANCH  21  22
ATOM     22  O   UNL     1      48.911  20.639  19.311  0.00  0.00    -0.290 OA
BRANCH  22  23
ATOM     23  C   UNL     1      49.206  20.779  20.702  0.00  0.00    +0.379 C 
BRANCH  23  24
ATOM     24  O   UNL     1      50.591  21.091  20.867  0.00  0.00    -0.573 OA
ATOM     25  H   UNL     1      50.788  21.593  21.669  0.00  0.00    +0.391 HD
ENDBRANCH  23  24
ENDBRANCH  22  23
ENDBRANCH  21  22
TORSDOF 9
ENDMDL
MODEL 2
REMARK VINA RESULT:      -5.1      1.689      5.470
REMARK  Name = ZINC95486346
REMARK  11 active torsions:
REMARK  status: ('A' for Active; 'I' for Inactive)
REMARK    1  A    between atoms: C1_1  and  O1_2
REMARK    2  A    between atoms: O1_2  and  C2_3
REMARK    3  A    between atoms: C7_8  and  O2_9
REMARK    4  A    between atoms: C12_15  and  O6_27
REMARK    5  A    between atoms: C13_16  and  O4_24
REMARK    6  A    between atoms: C14_17  and  O3_22
REMARK    7  A    between atoms: O3_22  and  C18_23
REMARK    8  A    between atoms: O4_24  and  C19_25
REMARK    9  A    between atoms: C19_25  and  O5_26
REMARK   10  A    between atoms: O6_27  and  C20_28
REMARK   11  A    between atoms: C20_28  and  O7_29
REMARK                            x       y       z     vdW  Elec       q    Type
REMARK                         _______ _______ _______ _____ _____    ______ ____
ROOT
ATOM      3  C   UNL     1      50.767  20.137  18.188  0.00  0.00    +0.098 A 
ATOM      4  C   UNL     1      49.515  19.927  18.740  0.00  0.00    -0.018 A 
ATOM      5  C   UNL     1      48.849  18.729  18.505  0.00  0.00    -0.017 A 
ATOM      6  C   UNL     1      49.427  17.754  17.692  0.00  0.00    -0.090 A 
ATOM      7  C   UNL     1      48.668  16.491  17.389  0.00  0.00    +0.109 C 
ATOM      8  C   UNL     1      47.866  16.041  18.607  0.00  0.00    +0.236 C 
ATOM      9  C   UNL     1      47.009  17.165  19.130  0.00  0.00    -0.087 A 
ATOM     10  C   UNL     1      45.765  16.914  19.667  0.00  0.00    -0.083 A 
ATOM     11  C   UNL     1      45.208  15.524  19.787  0.00  0.00    +0.055 C 
ATOM     12  C   UNL     1      46.209  14.460  19.369  0.00  0.00    +0.224 C 
ATOM     13  C   UNL     1      45.007  17.985  20.154  0.00  0.00    +0.086 A 
ATOM     16  C   UNL     1      45.490  19.284  20.111  0.00  0.00    +0.078 A 
ATOM     21  C   UNL     1      46.748  19.534  19.580  0.00  0.00    +0.109 A 
ATOM     26  N   UNL     1      46.996  14.921  18.223  0.00  0.00    -0.673 NA
ATOM     27  H   UNL     1      46.402  15.173  17.447  0.00  0.00    +0.346 HD
ATOM     28  C   UNL     1      50.678  17.965  17.151  0.00  0.00    +0.038 A 
ATOM     29  C   UNL     1      47.510  18.473  19.090  0.00  0.00    -0.047 A 
ATOM     30  C   UNL     1      51.349  19.154  17.392  0.00  0.00    +0.084 A 
ENDROOT
BRANCH   3   2
ATOM      1  C   UNL     1      52.111  21.427  19.666  0.00  0.00    +0.239 C 
ATOM      2  O   UNL     1      51.425  21.305  18.418  0.00  0.00    -0.306 OA
ENDBRANCH   3   2
BRANCH  13  14
ATOM     14  O   UNL     1      43.772  17.743  20.670  0.00  0.00    -0.330 OA
ATOM     15  C   UNL     1      43.677  17.603  22.088  0.00  0.00    +0.232 C 
ENDBRANCH  13  14
BRANCH  30  31
ATOM     31  O   UNL     1      52.581  19.360  16.854  0.00  0.00    -0.486 OA
ATOM     32  H   UNL     1      52.764  18.822  16.072  0.00  0.00    +0.388 HD
ENDBRANCH  30  31
BRANCH  16  17
ATOM     17  O   UNL     1      44.733  20.311  20.587  0.00  0.00    -0.287 OA
BRANCH  17  18
ATOM     18  C   UNL     1      43.837  20.936  19.665  0.00  0.00    +0.387 C 
BRANCH  18  19
ATOM     19  O   UNL     1      44.465  22.085  19.095  0.00  0.00    -0.582 OA
ATOM     20  H   UNL     1      44.650  22.004  18.149  0.00  0.00    +0.391 HD
ENDBRANCH  18  19
ENDBRANCH  17  18
ENDBRANCH  16  17
BRANCH  21  22
ATOM     22  O   UNL     1      47.234  20.803  19.539  0.00  0.00    -0.290 OA
BRANCH  22  23
ATOM     23  C   UNL     1      47.580  21.407  20.787  0.00  0.00    +0.379 C 
BRANCH  23  24
ATOM     24  O   UNL     1      46.683  22.486  21.059  0.00  0.00    -0.573 OA
ATOM     25  H   UNL     1      46.099  22.707  20.321  0.00  0.00    +0.391 HD
ENDBRANCH  23  24
ENDBRANCH  22  23
ENDBRANCH  21  22
TORSDOF 9
ENDMDL
MODEL 3
REMARK VINA RESULT:      -5.0      2.575      4.473
REMARK  Name = ZINC95486346
REMARK  11 active torsions:
REMARK  status: ('A' for Active; 'I' for Inactive)
REMARK    1  A    between atoms: C1_1  and  O1_2
REMARK    2  A    between atoms: O1_2  and  C2_3
REMARK    3  A    between atoms: C7_8  and  O2_9
REMARK    4  A    between atoms: C12_15  and  O6_27
REMARK    5  A    between atoms: C13_16  and  O4_24
REMARK    6  A    between atoms: C14_17  and  O3_22
REMARK    7  A    between atoms: O3_22  and  C18_23
REMARK    8  A    between atoms: O4_24  and  C19_25
REMARK    9  A    between atoms: C19_25  and  O5_26
REMARK   10  A    between atoms: O6_27  and  C20_28
REMARK   11  A    between atoms: C20_28  and  O7_29
REMARK                            x       y       z     vdW  Elec       q    Type
REMARK                         _______ _______ _______ _____ _____    ______ ____
ROOT
ATOM      3  C   UNL     1      43.681  19.481  19.642  0.00  0.00    +0.098 A 
ATOM      4  C   UNL     1      44.767  18.658  19.401  0.00  0.00    -0.018 A 
ATOM      5  C   UNL     1      46.005  19.218  19.103  0.00  0.00    -0.017 A 
ATOM      6  C   UNL     1      46.145  20.602  19.018  0.00  0.00    -0.090 A 
ATOM      7  C   UNL     1      47.472  21.195  18.627  0.00  0.00    +0.109 C 
ATOM      8  C   UNL     1      48.618  20.382  19.224  0.00  0.00    +0.236 C 
ATOM      9  C   UNL     1      48.472  18.921  18.887  0.00  0.00    -0.087 A 
ATOM     10  C   UNL     1      49.580  18.136  18.650  0.00  0.00    -0.083 A 
ATOM     11  C   UNL     1      50.979  18.676  18.737  0.00  0.00    +0.055 C 
ATOM     12  C   UNL     1      51.017  20.114  19.225  0.00  0.00    +0.224 C 
ATOM     13  C   UNL     1      49.401  16.780  18.354  0.00  0.00    +0.086 A 
ATOM     16  C   UNL     1      48.134  16.218  18.306  0.00  0.00    +0.078 A 
ATOM     21  C   UNL     1      47.019  17.007  18.557  0.00  0.00    +0.109 A 
ATOM     26  N   UNL     1      49.890  20.871  18.674  0.00  0.00    -0.673 NA
ATOM     27  H   UNL     1      49.885  20.839  17.666  0.00  0.00    +0.346 HD
ATOM     28  C   UNL     1      45.061  21.419  19.265  0.00  0.00    +0.038 A 
ATOM     29  C   UNL     1      47.188  18.360  18.850  0.00  0.00    -0.047 A 
ATOM     30  C   UNL     1      43.828  20.864  19.573  0.00  0.00    +0.084 A 
ENDROOT
BRANCH   3   2
ATOM      1  C   UNL     1      42.229  18.597  21.304  0.00  0.00    +0.239 C 
ATOM      2  O   UNL     1      42.468  18.939  19.938  0.00  0.00    -0.306 OA
ENDBRANCH   3   2
BRANCH  13  14
ATOM     14  O   UNL     1      50.491  16.007  18.103  0.00  0.00    -0.330 OA
ATOM     15  C   UNL     1      50.999  15.230  19.189  0.00  0.00    +0.232 C 
ENDBRANCH  13  14
BRANCH  30  31
ATOM     31  O   UNL     1      42.761  21.673  19.814  0.00  0.00    -0.486 OA
ATOM     32  H   UNL     1      41.909  21.278  19.584  0.00  0.00    +0.388 HD
ENDBRANCH  30  31
BRANCH  16  17
ATOM     17  O   UNL     1      47.984  14.897  18.012  0.00  0.00    -0.287 OA
BRANCH  17  18
ATOM     18  C   UNL     1      47.994  14.536  16.629  0.00  0.00    +0.387 C 
BRANCH  18  19
ATOM     19  O   UNL     1      46.687  14.714  16.080  0.00  0.00    -0.582 OA
ATOM     20  H   UNL     1      46.474  14.100  15.365  0.00  0.00    +0.391 HD
ENDBRANCH  18  19
ENDBRANCH  17  18
ENDBRANCH  16  17
BRANCH  21  22
ATOM     22  O   UNL     1      45.774  16.464  18.518  0.00  0.00    -0.290 OA
BRANCH  22  23
ATOM     23  C   UNL     1      45.475  15.453  19.483  0.00  0.00    +0.379 C 
BRANCH  23  24
ATOM     24  O   UNL     1      45.236  14.212  18.815  0.00  0.00    -0.573 OA
ATOM     25  H   UNL     1      45.826  14.049  18.066  0.00  0.00    +0.391 HD
ENDBRANCH  23  24
ENDBRANCH  22  23
ENDBRANCH  21  22
TORSDOF 9
ENDMDL
MODEL 4
REMARK VINA RESULT:      -5.0      2.934      5.503
REMARK  Name = ZINC95486346
REMARK  11 active torsions:
REMARK  status: ('A' for Active; 'I' for Inactive)
REMARK    1  A    between atoms: C1_1  and  O1_2
REMARK    2  A    between atoms: O1_2  and  C2_3
REMARK    3  A    between atoms: C7_8  and  O2_9
REMARK    4  A    between atoms: C12_15  and  O6_27
REMARK    5  A    between atoms: C13_16  and  O4_24
REMARK    6  A    between atoms: C14_17  and  O3_22
REMARK    7  A    between atoms: O3_22  and  C18_23
REMARK    8  A    between atoms: O4_24  and  C19_25
REMARK    9  A    between atoms: C19_25  and  O5_26
REMARK   10  A    between atoms: O6_27  and  C20_28
REMARK   11  A    between atoms: C20_28  and  O7_29
REMARK                            x       y       z     vdW  Elec       q    Type
REMARK                         _______ _______ _______ _____ _____    ______ ____
ROOT
ATOM      3  C   UNL     1      47.908  14.688  17.077  0.00  0.00    +0.098 A 
ATOM      4  C   UNL     1      48.706  15.801  17.276  0.00  0.00    -0.018 A 
ATOM      5  C   UNL     1      48.239  16.856  18.052  0.00  0.00    -0.017 A 
ATOM      6  C   UNL     1      46.959  16.807  18.603  0.00  0.00    -0.090 A 
ATOM      7  C   UNL     1      46.438  17.983  19.383  0.00  0.00    +0.109 C 
ATOM      8  C   UNL     1      47.558  18.626  20.198  0.00  0.00    +0.236 C 
ATOM      9  C   UNL     1      48.744  18.942  19.324  0.00  0.00    -0.087 A 
ATOM     10  C   UNL     1      49.511  20.064  19.552  0.00  0.00    -0.083 A 
ATOM     11  C   UNL     1      49.232  21.010  20.685  0.00  0.00    +0.055 C 
ATOM     12  C   UNL     1      48.111  20.521  21.587  0.00  0.00    +0.224 C 
ATOM     13  C   UNL     1      50.612  20.313  18.725  0.00  0.00    +0.086 A 
ATOM     16  C   UNL     1      50.944  19.449  17.692  0.00  0.00    +0.078 A 
ATOM     21  C   UNL     1      50.177  18.313  17.471  0.00  0.00    +0.109 A 
ATOM     26  N   UNL     1      47.062  19.874  20.795  0.00  0.00    -0.673 NA
ATOM     27  H   UNL     1      46.701  20.495  20.087  0.00  0.00    +0.346 HD
ATOM     28  C   UNL     1      46.169  15.692  18.409  0.00  0.00    +0.038 A 
ATOM     29  C   UNL     1      49.076  18.058  18.288  0.00  0.00    -0.047 A 
ATOM     30  C   UNL     1      46.637  14.634  17.645  0.00  0.00    +0.084 A 
ENDROOT
BRANCH   3   2
ATOM      1  C   UNL     1      49.773  13.562  16.126  0.00  0.00    +0.239 C 
ATOM      2  O   UNL     1      48.361  13.650  16.323  0.00  0.00    -0.306 OA
ENDBRANCH   3   2
BRANCH  13  14
ATOM     14  O   UNL     1      51.361  21.428  18.937  0.00  0.00    -0.330 OA
ATOM     15  C   UNL     1      52.548  21.273  19.716  0.00  0.00    +0.232 C 
ENDBRANCH  13  14
BRANCH  30  31
ATOM     31  O   UNL     1      45.855  13.538  17.453  0.00  0.00    -0.486 OA
ATOM     32  H   UNL     1      46.145  12.970  16.726  0.00  0.00    +0.388 HD
ENDBRANCH  30  31
BRANCH  16  17
ATOM     17  O   UNL     1      52.017  19.714  16.898  0.00  0.00    -0.287 OA
BRANCH  17  18
ATOM     18  C   UNL     1      51.767  20.441  15.693  0.00  0.00    +0.387 C 
BRANCH  18  19
ATOM     19  O   UNL     1      51.913  21.840  15.941  0.00  0.00    -0.582 OA
ATOM     20  H   UNL     1      51.103  22.273  16.243  0.00  0.00    +0.391 HD
ENDBRANCH  18  19
ENDBRANCH  17  18
ENDBRANCH  16  17
BRANCH  21  22
ATOM     22  O   UNL     1      50.498  17.456  16.465  0.00  0.00    -0.290 OA
BRANCH  22  23
ATOM     23  C   UNL     1      51.735  16.751  16.582  0.00  0.00    +0.379 C 
BRANCH  23  24
ATOM     24  O   UNL     1      52.514  16.955  15.401  0.00  0.00    -0.573 OA
ATOM     25  H   UNL     1      52.024  16.817  14.579  0.00  0.00    +0.391 HD
ENDBRANCH  23  24
ENDBRANCH  22  23
ENDBRANCH  21  22
TORSDOF 9
ENDMDL
MODEL 5
REMARK VINA RESULT:      -5.0      2.783      5.968
REMARK  Name = ZINC95486346
REMARK  11 active torsions:
REMARK  status: ('A' for Active; 'I' for Inactive)
REMARK    1  A    between atoms: C1_1  and  O1_2
REMARK    2  A    between atoms: O1_2  and  C2_3
REMARK    3  A    between atoms: C7_8  and  O2_9
REMARK    4  A    between atoms: C12_15  and  O6_27
REMARK    5  A    between atoms: C13_16  and  O4_24
REMARK    6  A    between atoms: C14_17  and  O3_22
REMARK    7  A    between atoms: O3_22  and  C18_23
REMARK    8  A    between atoms: O4_24  and  C19_25
REMARK    9  A    between atoms: C19_25  and  O5_26
REMARK   10  A    between atoms: O6_27  and  C20_28
REMARK   11  A    between atoms: C20_28  and  O7_29
REMARK                            x       y       z     vdW  Elec       q    Type
REMARK                         _______ _______ _______ _____ _____    ______ ____
ROOT
ATOM      3  C   UNL     1      51.096  19.516  17.582  0.00  0.00    +0.098 A 
ATOM      4  C   UNL     1      50.162  18.498  17.672  0.00  0.00    -0.018 A 
ATOM      5  C   UNL     1      49.132  18.586  18.602  0.00  0.00    -0.017 A 
ATOM      6  C   UNL     1      49.056  19.682  19.461  0.00  0.00    -0.090 A 
ATOM      7  C   UNL     1      47.977  19.734  20.509  0.00  0.00    +0.109 C 
ATOM      8  C   UNL     1      46.678  19.138  19.972  0.00  0.00    +0.236 C 
ATOM      9  C   UNL     1      46.914  17.766  19.398  0.00  0.00    -0.087 A 
ATOM     10  C   UNL     1      45.961  16.778  19.512  0.00  0.00    -0.083 A 
ATOM     11  C   UNL     1      44.637  17.014  20.183  0.00  0.00    +0.055 C 
ATOM     12  C   UNL     1      44.445  18.465  20.592  0.00  0.00    +0.224 C 
ATOM     13  C   UNL     1      46.214  15.520  18.953  0.00  0.00    +0.086 A 
ATOM     16  C   UNL     1      47.400  15.260  18.282  0.00  0.00    +0.078 A 
ATOM     21  C   UNL     1      48.355  16.259  18.156  0.00  0.00    +0.109 A 
ATOM     26  N   UNL     1      45.708  19.033  21.070  0.00  0.00    -0.673 NA
ATOM     27  H   UNL     1      46.085  18.495  21.836  0.00  0.00    +0.346 HD
ATOM     28  C   UNL     1      49.984  20.698  19.363  0.00  0.00    +0.038 A 
ATOM     29  C   UNL     1      48.112  17.515  18.714  0.00  0.00    -0.047 A 
ATOM     30  C   UNL     1      51.007  20.617  18.431  0.00  0.00    +0.084 A 
ENDROOT
BRANCH   3   2
ATOM      1  C   UNL     1      51.970  18.458  15.641  0.00  0.00    +0.239 C 
ATOM      2  O   UNL     1      52.104  19.437  16.672  0.00  0.00    -0.306 OA
ENDBRANCH   3   2
BRANCH  13  14
ATOM     14  O   UNL     1      45.282  14.538  19.079  0.00  0.00    -0.330 OA
ATOM     15  C   UNL     1      45.443  13.628  20.168  0.00  0.00    +0.232 C 
ENDBRANCH  13  14
BRANCH  30  31
ATOM     31  O   UNL     1      51.923  21.619  18.339  0.00  0.00    -0.486 OA
ATOM     32  H   UNL     1      51.601  22.476  18.651  0.00  0.00    +0.388 HD
ENDBRANCH  30  31
BRANCH  16  17
ATOM     17  O   UNL     1      47.627  14.028  17.749  0.00  0.00    -0.287 OA
BRANCH  17  18
ATOM     18  C   UNL     1      47.215  13.822  16.396  0.00  0.00    +0.387 C 
BRANCH  18  19
ATOM     19  O   UNL     1      48.358  13.856  15.539  0.00  0.00    -0.582 OA
ATOM     20  H   UNL     1      48.193  14.263  14.678  0.00  0.00    +0.391 HD
ENDBRANCH  18  19
ENDBRANCH  17  18
ENDBRANCH  16  17
BRANCH  21  22
ATOM     22  O   UNL     1      49.518  16.016  17.496  0.00  0.00    -0.290 OA
BRANCH  22  23
ATOM     23  C   UNL     1      50.475  15.183  18.151  0.00  0.00    +0.379 C 
BRANCH  23  24
ATOM     24  O   UNL     1      50.631  13.966  17.418  0.00  0.00    -0.573 OA
ATOM     25  H   UNL     1      51.467  13.902  16.936  0.00  0.00    +0.391 HD
ENDBRANCH  23  24
ENDBRANCH  22  23
ENDBRANCH  21  22
TORSDOF 9
ENDMDL
MODEL 6
REMARK VINA RESULT:      -4.9      2.709      6.750
REMARK  Name = ZINC95486346
REMARK  11 active torsions:
REMARK  status: ('A' for Active; 'I' for Inactive)
REMARK    1  A    between atoms: C1_1  and  O1_2
REMARK    2  A    between atoms: O1_2  and  C2_3
REMARK    3  A    between atoms: C7_8  and  O2_9
REMARK    4  A    between atoms: C12_15  and  O6_27
REMARK    5  A    between atoms: C13_16  and  O4_24
REMARK    6  A    between atoms: C14_17  and  O3_22
REMARK    7  A    between atoms: O3_22  and  C18_23
REMARK    8  A    between atoms: O4_24  and  C19_25
REMARK    9  A    between atoms: C19_25  and  O5_26
REMARK   10  A    between atoms: O6_27  and  C20_28
REMARK   11  A    between atoms: C20_28  and  O7_29
REMARK                            x       y       z     vdW  Elec       q    Type
REMARK                         _______ _______ _______ _____ _____    ______ ____
ROOT
ATOM      3  C   UNL     1      48.511  14.000  16.340  0.00  0.00    +0.098 A 
ATOM      4  C   UNL     1      48.293  15.238  16.919  0.00  0.00    -0.018 A 
ATOM      5  C   UNL     1      49.377  16.021  17.305  0.00  0.00    -0.017 A 
ATOM      6  C   UNL     1      50.677  15.547  17.136  0.00  0.00    -0.090 A 
ATOM      7  C   UNL     1      51.839  16.372  17.620  0.00  0.00    +0.109 C 
ATOM      8  C   UNL     1      51.571  17.858  17.399  0.00  0.00    +0.236 C 
ATOM      9  C   UNL     1      50.243  18.257  17.989  0.00  0.00    -0.087 A 
ATOM     10  C   UNL     1      50.068  19.499  18.561  0.00  0.00    -0.083 A 
ATOM     11  C   UNL     1      51.166  20.523  18.607  0.00  0.00    +0.055 C 
ATOM     12  C   UNL     1      52.409  20.075  17.856  0.00  0.00    +0.224 C 
ATOM     13  C   UNL     1      48.815  19.835  19.086  0.00  0.00    +0.086 A 
ATOM     16  C   UNL     1      47.753  18.945  19.030  0.00  0.00    +0.078 A 
ATOM     21  C   UNL     1      47.926  17.700  18.443  0.00  0.00    +0.109 A 
ATOM     26  N   UNL     1      52.632  18.640  18.047  0.00  0.00    -0.673 NA
ATOM     27  H   UNL     1      52.707  18.407  19.026  0.00  0.00    +0.346 HD
ATOM     28  C   UNL     1      50.890  14.316  16.552  0.00  0.00    +0.038 A 
ATOM     29  C   UNL     1      49.173  17.355  17.920  0.00  0.00    -0.047 A 
ATOM     30  C   UNL     1      49.812  13.538  16.157  0.00  0.00    +0.084 A 
ENDROOT
BRANCH   3   2
ATOM      1  C   UNL     1      46.395  13.071  16.901  0.00  0.00    +0.239 C 
ATOM      2  O   UNL     1      47.455  13.233  15.957  0.00  0.00    -0.306 OA
ENDBRANCH   3   2
BRANCH  13  14
ATOM     14  O   UNL     1      48.644  21.053  19.667  0.00  0.00    -0.330 OA
ATOM     15  C   UNL     1      48.686  21.102  21.094  0.00  0.00    +0.232 C 
ENDBRANCH  13  14
BRANCH  30  31
ATOM     31  O   UNL     1      50.025  12.323  15.583  0.00  0.00    -0.486 OA
ATOM     32  H   UNL     1      49.230  11.919  15.211  0.00  0.00    +0.388 HD
ENDBRANCH  30  31
BRANCH  16  17
ATOM     17  O   UNL     1      46.544  19.292  19.551  0.00  0.00    -0.287 OA
BRANCH  17  18
ATOM     18  C   UNL     1      45.652  20.010  18.694  0.00  0.00    +0.387 C 
BRANCH  18  19
ATOM     19  O   UNL     1      44.843  19.084  17.966  0.00  0.00    -0.582 OA
ATOM     20  H   UNL     1      45.304  18.648  17.236  0.00  0.00    +0.391 HD
ENDBRANCH  18  19
ENDBRANCH  17  18
ENDBRANCH  16  17
BRANCH  21  22
ATOM     22  O   UNL     1      46.890  16.823  18.378  0.00  0.00    -0.290 OA
BRANCH  22  23
ATOM     23  C   UNL     1      46.394  16.310  19.616  0.00  0.00    +0.379 C 
BRANCH  23  24
ATOM     24  O   UNL     1      45.022  16.680  19.770  0.00  0.00    -0.573 OA
ATOM     25  H   UNL     1      44.493  16.571  18.968  0.00  0.00    +0.391 HD
ENDBRANCH  23  24
ENDBRANCH  22  23
ENDBRANCH  21  22
TORSDOF 9
ENDMDL
MODEL 7
REMARK VINA RESULT:      -4.8      2.721      3.851
REMARK  Name = ZINC95486346
REMARK  11 active torsions:
REMARK  status: ('A' for Active; 'I' for Inactive)
REMARK    1  A    between atoms: C1_1  and  O1_2
REMARK    2  A    between atoms: O1_2  and  C2_3
REMARK    3  A    between atoms: C7_8  and  O2_9
REMARK    4  A    between atoms: C12_15  and  O6_27
REMARK    5  A    between atoms: C13_16  and  O4_24
REMARK    6  A    between atoms: C14_17  and  O3_22
REMARK    7  A    between atoms: O3_22  and  C18_23
REMARK    8  A    between atoms: O4_24  and  C19_25
REMARK    9  A    between atoms: C19_25  and  O5_26
REMARK   10  A    between atoms: O6_27  and  C20_28
REMARK   11  A    between atoms: C20_28  and  O7_29
REMARK                            x       y       z     vdW  Elec       q    Type
REMARK                         _______ _______ _______ _____ _____    ______ ____
ROOT
ATOM      3  C   UNL     1      42.269  19.287  20.339  0.00  0.00    +0.098 A 
ATOM      4  C   UNL     1      43.417  18.731  19.802  0.00  0.00    -0.018 A 
ATOM      5  C   UNL     1      44.087  17.727  20.492  0.00  0.00    -0.017 A 
ATOM      6  C   UNL     1      43.621  17.302  21.736  0.00  0.00    -0.090 A 
ATOM      7  C   UNL     1      44.392  16.264  22.505  0.00  0.00    +0.109 C 
ATOM      8  C   UNL     1      44.988  15.226  21.558  0.00  0.00    +0.236 C 
ATOM      9  C   UNL     1      45.777  15.893  20.461  0.00  0.00    -0.087 A 
ATOM     10  C   UNL     1      46.919  15.309  19.956  0.00  0.00    -0.083 A 
ATOM     11  C   UNL     1      47.422  13.980  20.442  0.00  0.00    +0.055 C 
ATOM     12  C   UNL     1      46.476  13.330  21.438  0.00  0.00    +0.224 C 
ATOM     13  C   UNL     1      47.615  15.954  18.928  0.00  0.00    +0.086 A 
ATOM     16  C   UNL     1      47.170  17.161  18.408  0.00  0.00    +0.078 A 
ATOM     21  C   UNL     1      46.013  17.743  18.909  0.00  0.00    +0.109 A 
ATOM     26  N   UNL     1      45.883  14.342  22.316  0.00  0.00    -0.673 NA
ATOM     27  H   UNL     1      46.594  14.872  22.797  0.00  0.00    +0.346 HD
ATOM     28  C   UNL     1      42.472  17.853  22.264  0.00  0.00    +0.038 A 
ATOM     29  C   UNL     1      45.314  17.108  19.936  0.00  0.00    -0.047 A 
ATOM     30  C   UNL     1      41.796  18.847  21.573  0.00  0.00    +0.084 A 
ENDROOT
BRANCH   3   2
ATOM      1  C   UNL     1      41.907  20.414  18.277  0.00  0.00    +0.239 C 
ATOM      2  O   UNL     1      41.607  20.266  19.666  0.00  0.00    -0.306 OA
ENDBRANCH   3   2
BRANCH  13  14
ATOM     14  O   UNL     1      48.751  15.389  18.439  0.00  0.00    -0.330 OA
ATOM     15  C   UNL     1      48.622  14.586  17.264  0.00  0.00    +0.232 C 
ENDBRANCH  13  14
BRANCH  30  31
ATOM     31  O   UNL     1      40.665  19.391  22.098  0.00  0.00    -0.486 OA
ATOM     32  H   UNL     1      40.751  19.661  23.023  0.00  0.00    +0.388 HD
ENDBRANCH  30  31
BRANCH  16  17
ATOM     17  O   UNL     1      47.865  17.773  17.411  0.00  0.00    -0.287 OA
BRANCH  17  18
ATOM     18  C   UNL     1      49.133  18.335  17.756  0.00  0.00    +0.387 C 
BRANCH  18  19
ATOM     19  O   UNL     1      50.161  17.692  16.999  0.00  0.00    -0.582 OA
ATOM     20  H   UNL     1      50.424  18.174  16.204  0.00  0.00    +0.391 HD
ENDBRANCH  18  19
ENDBRANCH  17  18
ENDBRANCH  16  17
BRANCH  21  22
ATOM     22  O   UNL     1      45.565  18.922  18.403  0.00  0.00    -0.290 OA
BRANCH  22  23
ATOM     23  C   UNL     1      46.229  20.110  18.838  0.00  0.00    +0.379 C 
BRANCH  23  24
ATOM     24  O   UNL     1      45.457  21.253  18.463  0.00  0.00    -0.573 OA
ATOM     25  H   UNL     1      45.987  22.003  18.160  0.00  0.00    +0.391 HD
ENDBRANCH  23  24
ENDBRANCH  22  23
ENDBRANCH  21  22
TORSDOF 9
ENDMDL
MODEL 8
REMARK VINA RESULT:      -4.8      2.779      6.650
REMARK  Name = ZINC95486346
REMARK  11 active torsions:
REMARK  status: ('A' for Active; 'I' for Inactive)
REMARK    1  A    between atoms: C1_1  and  O1_2
REMARK    2  A    between atoms: O1_2  and  C2_3
REMARK    3  A    between atoms: C7_8  and  O2_9
REMARK    4  A    between atoms: C12_15  and  O6_27
REMARK    5  A    between atoms: C13_16  and  O4_24
REMARK    6  A    between atoms: C14_17  and  O3_22
REMARK    7  A    between atoms: O3_22  and  C18_23
REMARK    8  A    between atoms: O4_24  and  C19_25
REMARK    9  A    between atoms: C19_25  and  O5_26
REMARK   10  A    between atoms: O6_27  and  C20_28
REMARK   11  A    between atoms: C20_28  and  O7_29
REMARK                            x       y       z     vdW  Elec       q    Type
REMARK                         _______ _______ _______ _____ _____    ______ ____
ROOT
ATOM      3  C   UNL     1      51.158  19.652  18.101  0.00  0.00    +0.098 A 
ATOM      4  C   UNL     1      49.858  19.231  18.325  0.00  0.00    -0.018 A 
ATOM      5  C   UNL     1      49.135  19.757  19.390  0.00  0.00    -0.017 A 
ATOM      6  C   UNL     1      49.727  20.683  20.248  0.00  0.00    -0.090 A 
ATOM      7  C   UNL     1      48.959  21.193  21.438  0.00  0.00    +0.109 C 
ATOM      8  C   UNL     1      47.482  21.361  21.091  0.00  0.00    +0.236 C 
ATOM      9  C   UNL     1      46.924  20.096  20.493  0.00  0.00    -0.087 A 
ATOM     10  C   UNL     1      45.626  19.708  20.744  0.00  0.00    -0.083 A 
ATOM     11  C   UNL     1      44.694  20.525  21.594  0.00  0.00    +0.055 C 
ATOM     12  C   UNL     1      45.309  21.847  22.022  0.00  0.00    +0.224 C 
ATOM     13  C   UNL     1      45.142  18.533  20.158  0.00  0.00    +0.086 A 
ATOM     16  C   UNL     1      45.943  17.764  19.327  0.00  0.00    +0.078 A 
ATOM     21  C   UNL     1      47.247  18.161  19.065  0.00  0.00    +0.109 A 
ATOM     26  N   UNL     1      46.734  21.678  22.315  0.00  0.00    -0.673 NA
ATOM     27  H   UNL     1      46.882  20.973  23.022  0.00  0.00    +0.346 HD
ATOM     28  C   UNL     1      51.020  21.106  20.018  0.00  0.00    +0.038 A 
ATOM     29  C   UNL     1      47.739  19.330  19.648  0.00  0.00    -0.047 A 
ATOM     30  C   UNL     1      51.739  20.591  18.950  0.00  0.00    +0.084 A 
ENDROOT
BRANCH   3   2
ATOM      1  C   UNL     1      51.775  19.840  15.812  0.00  0.00    +0.239 C 
ATOM      2  O   UNL     1      51.868  19.145  17.058  0.00  0.00    -0.306 OA
ENDBRANCH   3   2
BRANCH  13  14
ATOM     14  O   UNL     1      43.866  18.139  20.417  0.00  0.00    -0.330 OA
ATOM     15  C   UNL     1      43.648  17.402  21.621  0.00  0.00    +0.232 C 
ENDBRANCH  13  14
BRANCH  30  31
ATOM     31  O   UNL     1      53.015  21.008  18.727  0.00  0.00    -0.486 OA
ATOM     32  H   UNL     1      53.538  21.122  19.532  0.00  0.00    +0.388 HD
ENDBRANCH  30  31
BRANCH  16  17
ATOM     17  O   UNL     1      45.452  16.622  18.771  0.00  0.00    -0.287 OA
BRANCH  17  18
ATOM     18  C   UNL     1      45.707  15.401  19.469  0.00  0.00    +0.387 C 
BRANCH  18  19
ATOM     19  O   UNL     1      45.835  14.333  18.529  0.00  0.00    -0.582 OA
ATOM     20  H   UNL     1      45.084  13.723  18.521  0.00  0.00    +0.391 HD
ENDBRANCH  18  19
ENDBRANCH  17  18
ENDBRANCH  16  17
BRANCH  21  22
ATOM     22  O   UNL     1      48.039  17.417  18.248  0.00  0.00    -0.290 OA
BRANCH  22  23
ATOM     23  C   UNL     1      47.656  17.333  16.874  0.00  0.00    +0.379 C 
BRANCH  23  24
ATOM     24  O   UNL     1      47.391  15.970  16.536  0.00  0.00    -0.573 OA
ATOM     25  H   UNL     1      47.595  15.343  17.243  0.00  0.00    +0.391 HD
ENDBRANCH  23  24
ENDBRANCH  22  23
ENDBRANCH  21  22
TORSDOF 9
ENDMDL
MODEL 9
REMARK VINA RESULT:      -4.7      2.777      5.750
REMARK  Name = ZINC95486346
REMARK  11 active torsions:
REMARK  status: ('A' for Active; 'I' for Inactive)
REMARK    1  A    between atoms: C1_1  and  O1_2
REMARK    2  A    between atoms: O1_2  and  C2_3
REMARK    3  A    between atoms: C7_8  and  O2_9
REMARK    4  A    between atoms: C12_15  and  O6_27
REMARK    5  A    between atoms: C13_16  and  O4_24
REMARK    6  A    between atoms: C14_17  and  O3_22
REMARK    7  A    between atoms: O3_22  and  C18_23
REMARK    8  A    between atoms: O4_24  and  C19_25
REMARK    9  A    between atoms: C19_25  and  O5_26
REMARK   10  A    between atoms: O6_27  and  C20_28
REMARK   11  A    between atoms: C20_28  and  O7_29
REMARK                            x       y       z     vdW  Elec       q    Type
REMARK                         _______ _______ _______ _____ _____    ______ ____
ROOT
ATOM      3  C   UNL     1      50.326  19.965  18.378  0.00  0.00    +0.098 A 
ATOM      4  C   UNL     1      49.565  18.810  18.428  0.00  0.00    -0.018 A 
ATOM      5  C   UNL     1      50.006  17.663  17.776  0.00  0.00    -0.017 A 
ATOM      6  C   UNL     1      51.195  17.685  17.049  0.00  0.00    -0.090 A 
ATOM      7  C   UNL     1      51.627  16.460  16.291  0.00  0.00    +0.109 C 
ATOM      8  C   UNL     1      51.272  15.195  17.068  0.00  0.00    +0.236 C 
ATOM      9  C   UNL     1      49.817  15.196  17.459  0.00  0.00    -0.087 A 
ATOM     10  C   UNL     1      49.093  14.025  17.493  0.00  0.00    -0.083 A 
ATOM     11  C   UNL     1      49.707  12.692  17.172  0.00  0.00    +0.055 C 
ATOM     12  C   UNL     1      51.206  12.785  16.936  0.00  0.00    +0.224 C 
ATOM     13  C   UNL     1      47.747  14.068  17.875  0.00  0.00    +0.086 A 
ATOM     16  C   UNL     1      47.140  15.265  18.226  0.00  0.00    +0.078 A 
ATOM     21  C   UNL     1      47.874  16.443  18.204  0.00  0.00    +0.109 A 
ATOM     26  N   UNL     1      51.535  14.022  16.223  0.00  0.00    -0.673 NA
ATOM     27  H   UNL     1      51.034  14.086  15.349  0.00  0.00    +0.346 HD
ATOM     28  C   UNL     1      51.954  18.837  17.007  0.00  0.00    +0.038 A 
ATOM     29  C   UNL     1      49.215  16.409  17.821  0.00  0.00    -0.047 A 
ATOM     30  C   UNL     1      51.523  19.978  17.665  0.00  0.00    +0.084 A 
ENDROOT
BRANCH   3   2
ATOM      1  C   UNL     1      48.818  20.940  19.936  0.00  0.00    +0.239 C 
ATOM      2  O   UNL     1      49.902  21.088  19.018  0.00  0.00    -0.306 OA
ENDBRANCH   3   2
BRANCH  13  14
ATOM     14  O   UNL     1      47.025  12.916  17.893  0.00  0.00    -0.330 OA
ATOM     15  C   UNL     1      46.294  12.591  16.710  0.00  0.00    +0.232 C 
ENDBRANCH  13  14
BRANCH  30  31
ATOM     31  O   UNL     1      52.272  21.112  17.619  0.00  0.00    -0.486 OA
ATOM     32  H   UNL     1      52.076  21.683  16.864  0.00  0.00    +0.388 HD
ENDBRANCH  30  31
BRANCH  16  17
ATOM     17  O   UNL     1      45.829  15.284  18.591  0.00  0.00    -0.287 OA
BRANCH  17  18
ATOM     18  C   UNL     1      45.546  15.229  19.991  0.00  0.00    +0.387 C 
BRANCH  18  19
ATOM     19  O   UNL     1      45.094  16.510  20.436  0.00  0.00    -0.582 OA
ATOM     20  H   UNL     1      45.728  17.224  20.289  0.00  0.00    +0.391 HD
ENDBRANCH  18  19
ENDBRANCH  17  18
ENDBRANCH  16  17
BRANCH  21  22
ATOM     22  O   UNL     1      47.290  17.620  18.552  0.00  0.00    -0.290 OA
BRANCH  22  23
ATOM     23  C   UNL     1      46.435  18.232  17.585  0.00  0.00    +0.379 C 
BRANCH  23  24
ATOM     24  O   UNL     1      45.092  18.245  18.074  0.00  0.00    -0.573 OA
ATOM     25  H   UNL     1      45.005  17.941  18.988  0.00  0.00    +0.391 HD
ENDBRANCH  23  24
ENDBRANCH  22  23
ENDBRANCH  21  22
TORSDOF 9
ENDMDL
