MODEL 1
REMARK VINA RESULT:      -6.4      0.000      0.000
REMARK  Name = ZINC95485914
REMARK  6 active torsions:
REMARK  status: ('A' for Active; 'I' for Inactive)
REMARK    1  A    between atoms: C1_1  and  C2_2
REMARK    2  A    between atoms: C2_2  and  C18_23
REMARK    3  A    between atoms: C8_8  and  O4_21
REMARK    4  A    between atoms: C13_14  and  O3_20
REMARK    5  A    between atoms: C18_23  and  C19_24
REMARK    6  A    between atoms: C19_24  and  C20_25
REMARK                            x       y       z     vdW  Elec       q    Type
REMARK                         _______ _______ _______ _____ _____    ______ ____
ROOT
ATOM      1  C   UNL     1      46.743  21.362  21.358  0.00  0.00    +0.038 C 
ATOM      2  C   UNL     1      45.658  21.432  20.282  0.00  0.00    +0.148 C 
ATOM      7  C   UNL     1      46.220  20.931  18.978  0.00  0.00    -0.030 C 
ATOM      8  C   UNL     1      46.142  19.638  18.669  0.00  0.00    +0.052 C 
ATOM      9  C   UNL     1      45.468  18.730  19.615  0.00  0.00    -0.047 A 
ATOM     10  C   UNL     1      44.684  19.288  20.631  0.00  0.00    +0.121 A 
ATOM     11  C   UNL     1      44.052  18.461  21.545  0.00  0.00    +0.050 A 
ATOM     12  C   UNL     1      44.173  17.086  21.453  0.00  0.00    +0.121 A 
ATOM     15  C   UNL     1      44.927  16.505  20.431  0.00  0.00    +0.105 A 
ATOM     16  O   UNL     1      45.033  15.162  20.352  0.00  0.00    -0.214 OA
ATOM     17  C   UNL     1      45.474  14.545  19.239  0.00  0.00    +0.175 A 
ATOM     18  C   UNL     1      45.267  13.180  19.070  0.00  0.00    -0.009 A 
ATOM     19  C   UNL     1      45.733  12.539  17.940  0.00  0.00    +0.113 A 
ATOM     20  C   UNL     1      46.413  13.238  16.958  0.00  0.00    -0.037 A 
ATOM     21  C   UNL     1      46.631  14.600  17.098  0.00  0.00    +0.203 A 
ATOM     24  C   UNL     1      46.155  15.257  18.237  0.00  0.00    -0.262 A 
ATOM     25  C   UNL     1      46.352  16.708  18.418  0.00  0.00    +0.445 A 
ATOM     26  O   UNL     1      47.111  17.349  17.714  0.00  0.00    -0.428 OA
ATOM     27  C   UNL     1      45.573  17.336  19.503  0.00  0.00    -0.171 A 
ATOM     28  O   UNL     1      44.542  20.638  20.686  0.00  0.00    -0.294 OA
ENDROOT
BRANCH  12  13
ATOM     13  O   UNL     1      43.551  16.292  22.365  0.00  0.00    -0.476 OA
ATOM     14  H   UNL     1      44.043  16.181  23.190  0.00  0.00    +0.396 HD
ENDBRANCH  12  13
BRANCH  21  22
ATOM     22  O   UNL     1      47.299  15.288  16.139  0.00  0.00    -0.480 OA
ATOM     23  H   UNL     1      48.127  14.874  15.862  0.00  0.00    +0.403 HD
ENDBRANCH  21  22
BRANCH   2   3
ATOM      3  C   UNL     1      45.208  22.884  20.113  0.00  0.00    +0.069 C 
BRANCH   3   4
ATOM      4  C   UNL     1      43.717  22.919  19.766  0.00  0.00    +0.056 C 
BRANCH   4   5
ATOM      5  C   UNL     1      43.441  24.088  18.855  0.00  0.00    -0.050 C 
ATOM      6  C   UNL     1      44.381  24.968  18.616  0.00  0.00    +0.003 C 
ENDBRANCH   4   5
ENDBRANCH   3   4
ENDBRANCH   2   3
TORSDOF 5
ENDMDL
MODEL 2
REMARK VINA RESULT:      -6.4      3.339      5.640
REMARK  Name = ZINC95485914
REMARK  6 active torsions:
REMARK  status: ('A' for Active; 'I' for Inactive)
REMARK    1  A    between atoms: C1_1  and  C2_2
REMARK    2  A    between atoms: C2_2  and  C18_23
REMARK    3  A    between atoms: C8_8  and  O4_21
REMARK    4  A    between atoms: C13_14  and  O3_20
REMARK    5  A    between atoms: C18_23  and  C19_24
REMARK    6  A    between atoms: C19_24  and  C20_25
REMARK                            x       y       z     vdW  Elec       q    Type
REMARK                         _______ _______ _______ _____ _____    ______ ____
ROOT
ATOM      1  C   UNL     1      45.359  16.424  21.886  0.00  0.00    +0.038 C 
ATOM      2  C   UNL     1      44.751  17.553  21.051  0.00  0.00    +0.148 C 
ATOM      7  C   UNL     1      45.557  18.808  21.253  0.00  0.00    -0.030 C 
ATOM      8  C   UNL     1      46.595  19.071  20.460  0.00  0.00    +0.052 C 
ATOM      9  C   UNL     1      46.904  18.125  19.373  0.00  0.00    -0.047 A 
ATOM     10  C   UNL     1      45.941  17.169  19.026  0.00  0.00    +0.121 A 
ATOM     11  C   UNL     1      46.210  16.256  18.020  0.00  0.00    +0.050 A 
ATOM     12  C   UNL     1      47.415  16.290  17.340  0.00  0.00    +0.121 A 
ATOM     15  C   UNL     1      48.379  17.252  17.649  0.00  0.00    +0.105 A 
ATOM     16  O   UNL     1      49.548  17.274  16.975  0.00  0.00    -0.214 OA
ATOM     17  C   UNL     1      50.370  18.341  17.007  0.00  0.00    +0.175 A 
ATOM     18  C   UNL     1      51.385  18.467  16.065  0.00  0.00    -0.009 A 
ATOM     19  C   UNL     1      52.241  19.548  16.104  0.00  0.00    +0.113 A 
ATOM     20  C   UNL     1      52.109  20.523  17.079  0.00  0.00    -0.037 A 
ATOM     21  C   UNL     1      51.105  20.425  18.029  0.00  0.00    +0.203 A 
ATOM     24  C   UNL     1      50.229  19.335  17.990  0.00  0.00    -0.262 A 
ATOM     25  C   UNL     1      49.136  19.200  18.973  0.00  0.00    +0.445 A 
ATOM     26  O   UNL     1      49.080  19.891  19.975  0.00  0.00    -0.428 OA
ATOM     27  C   UNL     1      48.116  18.178  18.669  0.00  0.00    -0.171 A 
ATOM     28  O   UNL     1      44.748  17.173  19.675  0.00  0.00    -0.294 OA
ENDROOT
BRANCH  12  13
ATOM     13  O   UNL     1      47.662  15.380  16.361  0.00  0.00    -0.476 OA
ATOM     14  H   UNL     1      48.507  15.508  15.909  0.00  0.00    +0.396 HD
ENDBRANCH  12  13
BRANCH  21  22
ATOM     22  O   UNL     1      50.974  21.375  18.987  0.00  0.00    -0.480 OA
ATOM     23  H   UNL     1      51.811  21.655  19.381  0.00  0.00    +0.403 HD
ENDBRANCH  21  22
BRANCH   2   3
ATOM      3  C   UNL     1      43.312  17.798  21.509  0.00  0.00    +0.069 C 
BRANCH   3   4
ATOM      4  C   UNL     1      42.929  19.253  21.227  0.00  0.00    +0.056 C 
BRANCH   4   5
ATOM      5  C   UNL     1      41.945  19.301  20.086  0.00  0.00    -0.050 C 
ATOM      6  C   UNL     1      42.177  20.072  19.053  0.00  0.00    +0.003 C 
ENDBRANCH   4   5
ENDBRANCH   3   4
ENDBRANCH   2   3
TORSDOF 5
ENDMDL
MODEL 3
REMARK VINA RESULT:      -6.3      3.508      5.029
REMARK  Name = ZINC95485914
REMARK  6 active torsions:
REMARK  status: ('A' for Active; 'I' for Inactive)
REMARK    1  A    between atoms: C1_1  and  C2_2
REMARK    2  A    between atoms: C2_2  and  C18_23
REMARK    3  A    between atoms: C8_8  and  O4_21
REMARK    4  A    between atoms: C13_14  and  O3_20
REMARK    5  A    between atoms: C18_23  and  C19_24
REMARK    6  A    between atoms: C19_24  and  C20_25
REMARK                            x       y       z     vdW  Elec       q    Type
REMARK                         _______ _______ _______ _____ _____    ______ ____
ROOT
ATOM      1  C   UNL     1      43.733  20.082  20.907  0.00  0.00    +0.038 C 
ATOM      2  C   UNL     1      43.885  20.672  19.504  0.00  0.00    +0.148 C 
ATOM      7  C   UNL     1      45.040  21.638  19.495  0.00  0.00    -0.030 C 
ATOM      8  C   UNL     1      46.269  21.208  19.214  0.00  0.00    +0.052 C 
ATOM      9  C   UNL     1      46.456  19.783  18.884  0.00  0.00    -0.047 A 
ATOM     10  C   UNL     1      45.324  19.015  18.583  0.00  0.00    +0.121 A 
ATOM     11  C   UNL     1      45.466  17.670  18.285  0.00  0.00    +0.050 A 
ATOM     12  C   UNL     1      46.717  17.080  18.264  0.00  0.00    +0.121 A 
ATOM     15  C   UNL     1      47.863  17.833  18.533  0.00  0.00    +0.105 A 
ATOM     16  O   UNL     1      49.077  17.244  18.506  0.00  0.00    -0.214 OA
ATOM     17  C   UNL     1      50.217  17.961  18.448  0.00  0.00    +0.175 A 
ATOM     18  C   UNL     1      51.411  17.343  18.096  0.00  0.00    -0.009 A 
ATOM     19  C   UNL     1      52.584  18.068  18.054  0.00  0.00    +0.113 A 
ATOM     20  C   UNL     1      52.595  19.418  18.361  0.00  0.00    -0.037 A 
ATOM     21  C   UNL     1      51.419  20.061  18.712  0.00  0.00    +0.203 A 
ATOM     24  C   UNL     1      50.225  19.333  18.750  0.00  0.00    -0.262 A 
ATOM     25  C   UNL     1      48.948  19.982  19.104  0.00  0.00    +0.445 A 
ATOM     26  O   UNL     1      48.903  21.100  19.585  0.00  0.00    -0.428 OA
ATOM     27  C   UNL     1      47.728  19.195  18.839  0.00  0.00    -0.171 A 
ATOM     28  O   UNL     1      44.106  19.616  18.570  0.00  0.00    -0.294 OA
ENDROOT
BRANCH  12  13
ATOM     13  O   UNL     1      46.834  15.757  17.977  0.00  0.00    -0.476 OA
ATOM     14  H   UNL     1      47.391  15.267  18.597  0.00  0.00    +0.396 HD
ENDBRANCH  12  13
BRANCH  21  22
ATOM     22  O   UNL     1      51.425  21.382  19.017  0.00  0.00    -0.480 OA
ATOM     23  H   UNL     1      51.490  21.568  19.964  0.00  0.00    +0.403 HD
ENDBRANCH  21  22
BRANCH   2   3
ATOM      3  C   UNL     1      42.603  21.417  19.128  0.00  0.00    +0.069 C 
BRANCH   3   4
ATOM      4  C   UNL     1      41.564  20.417  18.614  0.00  0.00    +0.056 C 
BRANCH   4   5
ATOM      5  C   UNL     1      40.214  20.753  19.195  0.00  0.00    -0.050 C 
ATOM      6  C   UNL     1      39.372  21.487  18.512  0.00  0.00    +0.003 C 
ENDBRANCH   4   5
ENDBRANCH   3   4
ENDBRANCH   2   3
TORSDOF 5
ENDMDL
MODEL 4
REMARK VINA RESULT:      -6.3      3.490      5.654
REMARK  Name = ZINC95485914
REMARK  6 active torsions:
REMARK  status: ('A' for Active; 'I' for Inactive)
REMARK    1  A    between atoms: C1_1  and  C2_2
REMARK    2  A    between atoms: C2_2  and  C18_23
REMARK    3  A    between atoms: C8_8  and  O4_21
REMARK    4  A    between atoms: C13_14  and  O3_20
REMARK    5  A    between atoms: C18_23  and  C19_24
REMARK    6  A    between atoms: C19_24  and  C20_25
REMARK                            x       y       z     vdW  Elec       q    Type
REMARK                         _______ _______ _______ _____ _____    ______ ____
ROOT
ATOM      1  C   UNL     1      49.848  18.255  18.376  0.00  0.00    +0.038 C 
ATOM      2  C   UNL     1      49.782  19.411  19.377  0.00  0.00    +0.148 C 
ATOM      7  C   UNL     1      48.841  20.464  18.856  0.00  0.00    -0.030 C 
ATOM      8  C   UNL     1      47.544  20.411  19.159  0.00  0.00    +0.052 C 
ATOM      9  C   UNL     1      47.072  19.324  20.035  0.00  0.00    -0.047 A 
ATOM     10  C   UNL     1      48.022  18.583  20.750  0.00  0.00    +0.121 A 
ATOM     11  C   UNL     1      47.611  17.545  21.568  0.00  0.00    +0.050 A 
ATOM     12  C   UNL     1      46.267  17.242  21.701  0.00  0.00    +0.121 A 
ATOM     15  C   UNL     1      45.300  17.984  21.020  0.00  0.00    +0.105 A 
ATOM     16  O   UNL     1      43.993  17.678  21.163  0.00  0.00    -0.214 OA
ATOM     17  C   UNL     1      43.016  18.529  20.792  0.00  0.00    +0.175 A 
ATOM     18  C   UNL     1      41.715  18.335  21.242  0.00  0.00    -0.009 A 
ATOM     19  C   UNL     1      40.708  19.192  20.851  0.00  0.00    +0.113 A 
ATOM     20  C   UNL     1      40.971  20.257  20.005  0.00  0.00    -0.037 A 
ATOM     21  C   UNL     1      42.259  20.477  19.544  0.00  0.00    +0.203 A 
ATOM     24  C   UNL     1      43.286  19.615  19.943  0.00  0.00    -0.262 A 
ATOM     25  C   UNL     1      44.675  19.823  19.488  0.00  0.00    +0.445 A 
ATOM     26  O   UNL     1      44.950  20.598  18.589  0.00  0.00    -0.428 OA
ATOM     27  C   UNL     1      45.709  19.036  20.187  0.00  0.00    -0.171 A 
ATOM     28  O   UNL     1      49.334  18.917  20.639  0.00  0.00    -0.294 OA
ENDROOT
BRANCH  12  13
ATOM     13  O   UNL     1      45.885  16.213  22.503  0.00  0.00    -0.476 OA
ATOM     14  H   UNL     1      46.118  15.339  22.161  0.00  0.00    +0.396 HD
ENDBRANCH  12  13
BRANCH  21  22
ATOM     22  O   UNL     1      42.521  21.516  18.714  0.00  0.00    -0.480 OA
ATOM     23  H   UNL     1      43.108  22.185  19.093  0.00  0.00    +0.403 HD
ENDBRANCH  21  22
BRANCH   2   3
ATOM      3  C   UNL     1      51.177  20.018  19.540  0.00  0.00    +0.069 C 
BRANCH   3   4
ATOM      4  C   UNL     1      51.330  21.207  18.588  0.00  0.00    +0.056 C 
BRANCH   4   5
ATOM      5  C   UNL     1      52.162  20.795  17.400  0.00  0.00    -0.050 C 
ATOM      6  C   UNL     1      51.698  20.961  16.187  0.00  0.00    +0.003 C 
ENDBRANCH   4   5
ENDBRANCH   3   4
ENDBRANCH   2   3
TORSDOF 5
ENDMDL
MODEL 5
REMARK VINA RESULT:      -6.1      3.167      6.012
REMARK  Name = ZINC95485914
REMARK  6 active torsions:
REMARK  status: ('A' for Active; 'I' for Inactive)
REMARK    1  A    between atoms: C1_1  and  C2_2
REMARK    2  A    between atoms: C2_2  and  C18_23
REMARK    3  A    between atoms: C8_8  and  O4_21
REMARK    4  A    between atoms: C13_14  and  O3_20
REMARK    5  A    between atoms: C18_23  and  C19_24
REMARK    6  A    between atoms: C19_24  and  C20_25
REMARK                            x       y       z     vdW  Elec       q    Type
REMARK                         _______ _______ _______ _____ _____    ______ ____
ROOT
ATOM      1  C   UNL     1      49.639  19.022  19.631  0.00  0.00    +0.038 C 
ATOM      2  C   UNL     1      49.246  19.734  20.927  0.00  0.00    +0.148 C 
ATOM      7  C   UNL     1      48.611  21.058  20.592  0.00  0.00    -0.030 C 
ATOM      8  C   UNL     1      47.295  21.139  20.400  0.00  0.00    +0.052 C 
ATOM      9  C   UNL     1      46.487  19.916  20.558  0.00  0.00    -0.047 A 
ATOM     10  C   UNL     1      47.068  18.808  21.186  0.00  0.00    +0.121 A 
ATOM     11  C   UNL     1      46.340  17.639  21.333  0.00  0.00    +0.050 A 
ATOM     12  C   UNL     1      45.034  17.561  20.881  0.00  0.00    +0.121 A 
ATOM     15  C   UNL     1      44.423  18.662  20.276  0.00  0.00    +0.105 A 
ATOM     16  O   UNL     1      43.149  18.571  19.844  0.00  0.00    -0.214 OA
ATOM     17  C   UNL     1      42.416  19.662  19.545  0.00  0.00    +0.175 A 
ATOM     18  C   UNL     1      41.036  19.562  19.421  0.00  0.00    -0.009 A 
ATOM     19  C   UNL     1      40.283  20.672  19.096  0.00  0.00    +0.113 A 
ATOM     20  C   UNL     1      40.886  21.902  18.887  0.00  0.00    -0.037 A 
ATOM     21  C   UNL     1      42.260  22.031  19.007  0.00  0.00    +0.203 A 
ATOM     24  C   UNL     1      43.028  20.911  19.343  0.00  0.00    -0.262 A 
ATOM     25  C   UNL     1      44.492  21.009  19.497  0.00  0.00    +0.445 A 
ATOM     26  O   UNL     1      45.116  21.989  19.130  0.00  0.00    -0.428 OA
ATOM     27  C   UNL     1      45.156  19.848  20.121  0.00  0.00    -0.171 A 
ATOM     28  O   UNL     1      48.337  18.912  21.659  0.00  0.00    -0.294 OA
ENDROOT
BRANCH  12  13
ATOM     13  O   UNL     1      44.339  16.402  21.028  0.00  0.00    -0.476 OA
ATOM     14  H   UNL     1      43.737  16.397  21.784  0.00  0.00    +0.396 HD
ENDBRANCH  12  13
BRANCH  21  22
ATOM     22  O   UNL     1      42.855  23.232  18.801  0.00  0.00    -0.480 OA
ATOM     23  H   UNL     1      43.476  23.488  19.496  0.00  0.00    +0.403 HD
ENDBRANCH  21  22
BRANCH   2   3
ATOM      3  C   UNL     1      50.499  19.975  21.770  0.00  0.00    +0.069 C 
BRANCH   3   4
ATOM      4  C   UNL     1      50.869  21.459  21.722  0.00  0.00    +0.056 C 
BRANCH   4   5
ATOM      5  C   UNL     1      52.264  21.611  21.172  0.00  0.00    -0.050 C 
ATOM      6  C   UNL     1      52.472  21.527  19.882  0.00  0.00    +0.003 C 
ENDBRANCH   4   5
ENDBRANCH   3   4
ENDBRANCH   2   3
TORSDOF 5
ENDMDL
MODEL 6
REMARK VINA RESULT:      -6.1      3.405      4.471
REMARK  Name = ZINC95485914
REMARK  6 active torsions:
REMARK  status: ('A' for Active; 'I' for Inactive)
REMARK    1  A    between atoms: C1_1  and  C2_2
REMARK    2  A    between atoms: C2_2  and  C18_23
REMARK    3  A    between atoms: C8_8  and  O4_21
REMARK    4  A    between atoms: C13_14  and  O3_20
REMARK    5  A    between atoms: C18_23  and  C19_24
REMARK    6  A    between atoms: C19_24  and  C20_25
REMARK                            x       y       z     vdW  Elec       q    Type
REMARK                         _______ _______ _______ _____ _____    ______ ____
ROOT
ATOM      1  C   UNL     1      50.133  18.704  20.105  0.00  0.00    +0.038 C 
ATOM      2  C   UNL     1      49.561  19.198  18.774  0.00  0.00    +0.148 C 
ATOM      7  C   UNL     1      50.129  18.369  17.652  0.00  0.00    -0.030 C 
ATOM      8  C   UNL     1      49.507  17.258  17.261  0.00  0.00    +0.052 C 
ATOM      9  C   UNL     1      48.245  16.888  17.928  0.00  0.00    -0.047 A 
ATOM     10  C   UNL     1      47.600  17.850  18.715  0.00  0.00    +0.121 A 
ATOM     11  C   UNL     1      46.423  17.527  19.368  0.00  0.00    +0.050 A 
ATOM     12  C   UNL     1      45.865  16.268  19.236  0.00  0.00    +0.121 A 
ATOM     15  C   UNL     1      46.476  15.300  18.434  0.00  0.00    +0.105 A 
ATOM     16  O   UNL     1      45.919  14.078  18.312  0.00  0.00    -0.214 OA
ATOM     17  C   UNL     1      46.277  13.224  17.333  0.00  0.00    +0.175 A 
ATOM     18  C   UNL     1      45.475  12.128  17.037  0.00  0.00    -0.009 A 
ATOM     19  C   UNL     1      45.846  11.240  16.047  0.00  0.00    +0.113 A 
ATOM     20  C   UNL     1      47.020  11.422  15.335  0.00  0.00    -0.037 A 
ATOM     21  C   UNL     1      47.836  12.508  15.607  0.00  0.00    +0.203 A 
ATOM     24  C   UNL     1      47.462  13.416  16.604  0.00  0.00    -0.262 A 
ATOM     25  C   UNL     1      48.295  14.593  16.914  0.00  0.00    +0.445 A 
ATOM     26  O   UNL     1      49.430  14.712  16.487  0.00  0.00    -0.428 OA
ATOM     27  C   UNL     1      47.671  15.619  17.772  0.00  0.00    -0.171 A 
ATOM     28  O   UNL     1      48.138  19.094  18.805  0.00  0.00    -0.294 OA
ENDROOT
BRANCH  12  13
ATOM     13  O   UNL     1      44.713  15.968  19.891  0.00  0.00    -0.476 OA
ATOM     14  H   UNL     1      43.928  16.397  19.524  0.00  0.00    +0.396 HD
ENDBRANCH  12  13
BRANCH  21  22
ATOM     22  O   UNL     1      48.988  12.689  14.914  0.00  0.00    -0.480 OA
ATOM     23  H   UNL     1      49.141  12.028  14.225  0.00  0.00    +0.403 HD
ENDBRANCH  21  22
BRANCH   2   3
ATOM      3  C   UNL     1      49.955  20.662  18.568  0.00  0.00    +0.069 C 
BRANCH   3   4
ATOM      4  C   UNL     1      51.407  20.737  18.088  0.00  0.00    +0.056 C 
BRANCH   4   5
ATOM      5  C   UNL     1      51.438  21.210  16.657  0.00  0.00    -0.050 C 
ATOM      6  C   UNL     1      52.175  20.581  15.776  0.00  0.00    +0.003 C 
ENDBRANCH   4   5
ENDBRANCH   3   4
ENDBRANCH   2   3
TORSDOF 5
ENDMDL
MODEL 7
REMARK VINA RESULT:      -5.9      1.634      2.070
REMARK  Name = ZINC95485914
REMARK  6 active torsions:
REMARK  status: ('A' for Active; 'I' for Inactive)
REMARK    1  A    between atoms: C1_1  and  C2_2
REMARK    2  A    between atoms: C2_2  and  C18_23
REMARK    3  A    between atoms: C8_8  and  O4_21
REMARK    4  A    between atoms: C13_14  and  O3_20
REMARK    5  A    between atoms: C18_23  and  C19_24
REMARK    6  A    between atoms: C19_24  and  C20_25
REMARK                            x       y       z     vdW  Elec       q    Type
REMARK                         _______ _______ _______ _____ _____    ______ ____
ROOT
ATOM      1  C   UNL     1      45.773  20.379  21.053  0.00  0.00    +0.038 C 
ATOM      2  C   UNL     1      44.489  20.052  20.289  0.00  0.00    +0.148 C 
ATOM      7  C   UNL     1      44.830  19.736  18.857  0.00  0.00    -0.030 C 
ATOM      8  C   UNL     1      45.109  18.484  18.496  0.00  0.00    +0.052 C 
ATOM      9  C   UNL     1      45.041  17.427  19.522  0.00  0.00    -0.047 A 
ATOM     10  C   UNL     1      44.404  17.715  20.735  0.00  0.00    +0.121 A 
ATOM     11  C   UNL     1      44.338  16.748  21.724  0.00  0.00    +0.050 A 
ATOM     12  C   UNL     1      44.880  15.491  21.519  0.00  0.00    +0.121 A 
ATOM     15  C   UNL     1      45.496  15.171  20.306  0.00  0.00    +0.105 A 
ATOM     16  O   UNL     1      46.017  13.941  20.120  0.00  0.00    -0.214 OA
ATOM     17  C   UNL     1      46.336  13.479  18.895  0.00  0.00    +0.175 A 
ATOM     18  C   UNL     1      46.557  12.121  18.698  0.00  0.00    -0.009 A 
ATOM     19  C   UNL     1      46.902  11.645  17.450  0.00  0.00    +0.113 A 
ATOM     20  C   UNL     1      47.036  12.506  16.374  0.00  0.00    -0.037 A 
ATOM     21  C   UNL     1      46.819  13.865  16.540  0.00  0.00    +0.203 A 
ATOM     24  C   UNL     1      46.462  14.353  17.802  0.00  0.00    -0.262 A 
ATOM     25  C   UNL     1      46.206  15.790  18.019  0.00  0.00    +0.445 A 
ATOM     26  O   UNL     1      46.502  16.631  17.188  0.00  0.00    -0.428 OA
ATOM     27  C   UNL     1      45.569  16.147  19.301  0.00  0.00    -0.171 A 
ATOM     28  O   UNL     1      43.842  18.940  20.908  0.00  0.00    -0.294 OA
ENDROOT
BRANCH  12  13
ATOM     13  O   UNL     1      44.812  14.558  22.505  0.00  0.00    -0.476 OA
ATOM     14  H   UNL     1      45.415  13.813  22.384  0.00  0.00    +0.396 HD
ENDBRANCH  12  13
BRANCH  21  22
ATOM     22  O   UNL     1      46.952  14.713  15.491  0.00  0.00    -0.480 OA
ATOM     23  H   UNL     1      47.827  14.697  15.080  0.00  0.00    +0.403 HD
ENDBRANCH  21  22
BRANCH   2   3
ATOM      3  C   UNL     1      43.555  21.263  20.329  0.00  0.00    +0.069 C 
BRANCH   3   4
ATOM      4  C   UNL     1      42.760  21.338  19.023  0.00  0.00    +0.056 C 
BRANCH   4   5
ATOM      5  C   UNL     1      41.410  20.696  19.220  0.00  0.00    -0.050 C 
ATOM      6  C   UNL     1      40.844  20.048  18.233  0.00  0.00    +0.003 C 
ENDBRANCH   4   5
ENDBRANCH   3   4
ENDBRANCH   2   3
TORSDOF 5
ENDMDL
MODEL 8
REMARK VINA RESULT:      -5.7      4.256      6.223
REMARK  Name = ZINC95485914
REMARK  6 active torsions:
REMARK  status: ('A' for Active; 'I' for Inactive)
REMARK    1  A    between atoms: C1_1  and  C2_2
REMARK    2  A    between atoms: C2_2  and  C18_23
REMARK    3  A    between atoms: C8_8  and  O4_21
REMARK    4  A    between atoms: C13_14  and  O3_20
REMARK    5  A    between atoms: C18_23  and  C19_24
REMARK    6  A    between atoms: C19_24  and  C20_25
REMARK                            x       y       z     vdW  Elec       q    Type
REMARK                         _______ _______ _______ _____ _____    ______ ____
ROOT
ATOM      1  C   UNL     1      51.369  19.851  16.300  0.00  0.00    +0.038 C 
ATOM      2  C   UNL     1      51.630  19.414  17.743  0.00  0.00    +0.148 C 
ATOM      7  C   UNL     1      50.333  19.426  18.506  0.00  0.00    -0.030 C 
ATOM      8  C   UNL     1      49.567  18.336  18.542  0.00  0.00    +0.052 C 
ATOM      9  C   UNL     1      50.040  17.124  17.848  0.00  0.00    -0.047 A 
ATOM     10  C   UNL     1      51.381  17.065  17.447  0.00  0.00    +0.121 A 
ATOM     11  C   UNL     1      51.850  15.948  16.778  0.00  0.00    +0.050 A 
ATOM     12  C   UNL     1      51.012  14.878  16.517  0.00  0.00    +0.121 A 
ATOM     15  C   UNL     1      49.678  14.902  16.932  0.00  0.00    +0.105 A 
ATOM     16  O   UNL     1      48.874  13.850  16.673  0.00  0.00    -0.214 OA
ATOM     17  C   UNL     1      47.695  13.680  17.304  0.00  0.00    +0.175 A 
ATOM     18  C   UNL     1      47.054  12.448  17.263  0.00  0.00    -0.009 A 
ATOM     19  C   UNL     1      45.838  12.274  17.892  0.00  0.00    +0.113 A 
ATOM     20  C   UNL     1      45.234  13.318  18.571  0.00  0.00    -0.037 A 
ATOM     21  C   UNL     1      45.853  14.557  18.632  0.00  0.00    +0.203 A 
ATOM     24  C   UNL     1      47.089  14.738  18.002  0.00  0.00    -0.262 A 
ATOM     25  C   UNL     1      47.789  16.036  18.056  0.00  0.00    +0.445 A 
ATOM     26  O   UNL     1      47.238  17.050  18.447  0.00  0.00    -0.428 OA
ATOM     27  C   UNL     1      49.194  16.032  17.607  0.00  0.00    -0.171 A 
ATOM     28  O   UNL     1      52.202  18.106  17.743  0.00  0.00    -0.294 OA
ENDROOT
BRANCH  12  13
ATOM     13  O   UNL     1      51.490  13.793  15.852  0.00  0.00    -0.476 OA
ATOM     14  H   UNL     1      51.561  12.997  16.396  0.00  0.00    +0.396 HD
ENDBRANCH  12  13
BRANCH  21  22
ATOM     22  O   UNL     1      45.264  15.584  19.294  0.00  0.00    -0.480 OA
ATOM     23  H   UNL     1      44.300  15.527  19.333  0.00  0.00    +0.403 HD
ENDBRANCH  21  22
BRANCH   2   3
ATOM      3  C   UNL     1      52.609  20.392  18.396  0.00  0.00    +0.069 C 
BRANCH   3   4
ATOM      4  C   UNL     1      51.826  21.467  19.153  0.00  0.00    +0.056 C 
BRANCH   4   5
ATOM      5  C   UNL     1      52.578  21.849  20.403  0.00  0.00    -0.050 C 
ATOM      6  C   UNL     1      52.532  21.073  21.457  0.00  0.00    +0.003 C 
ENDBRANCH   4   5
ENDBRANCH   3   4
ENDBRANCH   2   3
TORSDOF 5
ENDMDL
MODEL 9
REMARK VINA RESULT:      -5.5      1.859      7.892
REMARK  Name = ZINC95485914
REMARK  6 active torsions:
REMARK  status: ('A' for Active; 'I' for Inactive)
REMARK    1  A    between atoms: C1_1  and  C2_2
REMARK    2  A    between atoms: C2_2  and  C18_23
REMARK    3  A    between atoms: C8_8  and  O4_21
REMARK    4  A    between atoms: C13_14  and  O3_20
REMARK    5  A    between atoms: C18_23  and  C19_24
REMARK    6  A    between atoms: C19_24  and  C20_25
REMARK                            x       y       z     vdW  Elec       q    Type
REMARK                         _______ _______ _______ _____ _____    ______ ____
ROOT
ATOM      1  C   UNL     1      48.354  12.614  19.556  0.00  0.00    +0.038 C 
ATOM      2  C   UNL     1      47.447  12.697  18.326  0.00  0.00    +0.148 C 
ATOM      7  C   UNL     1      46.080  13.164  18.749  0.00  0.00    -0.030 C 
ATOM      8  C   UNL     1      45.798  14.466  18.780  0.00  0.00    +0.052 C 
ATOM      9  C   UNL     1      46.841  15.420  18.359  0.00  0.00    -0.047 A 
ATOM     10  C   UNL     1      47.955  14.928  17.669  0.00  0.00    +0.121 A 
ATOM     11  C   UNL     1      48.959  15.797  17.277  0.00  0.00    +0.050 A 
ATOM     12  C   UNL     1      48.864  17.152  17.543  0.00  0.00    +0.121 A 
ATOM     15  C   UNL     1      47.748  17.670  18.205  0.00  0.00    +0.105 A 
ATOM     16  O   UNL     1      47.668  18.993  18.455  0.00  0.00    -0.214 OA
ATOM     17  C   UNL     1      46.508  19.585  18.800  0.00  0.00    +0.175 A 
ATOM     18  C   UNL     1      46.384  20.968  18.731  0.00  0.00    -0.009 A 
ATOM     19  C   UNL     1      45.205  21.582  19.101  0.00  0.00    +0.113 A 
ATOM     20  C   UNL     1      44.127  20.836  19.547  0.00  0.00    -0.037 A 
ATOM     21  C   UNL     1      44.221  19.455  19.622  0.00  0.00    +0.203 A 
ATOM     24  C   UNL     1      45.411  18.827  19.242  0.00  0.00    -0.262 A 
ATOM     25  C   UNL     1      45.548  17.358  19.291  0.00  0.00    +0.445 A 
ATOM     26  O   UNL     1      44.734  16.653  19.861  0.00  0.00    -0.428 OA
ATOM     27  C   UNL     1      46.729  16.795  18.609  0.00  0.00    -0.171 A 
ATOM     28  O   UNL     1      48.017  13.602  17.381  0.00  0.00    -0.294 OA
ENDROOT
BRANCH  12  13
ATOM     13  O   UNL     1      49.864  17.987  17.156  0.00  0.00    -0.476 OA
ATOM     14  H   UNL     1      49.562  18.763  16.665  0.00  0.00    +0.396 HD
ENDBRANCH  12  13
BRANCH  21  22
ATOM     22  O   UNL     1      43.168  18.721  20.060  0.00  0.00    -0.480 OA
ATOM     23  H   UNL     1      42.307  19.123  19.884  0.00  0.00    +0.403 HD
ENDBRANCH  21  22
BRANCH   2   3
ATOM      3  C   UNL     1      47.332  11.311  17.690  0.00  0.00    +0.069 C 
BRANCH   3   4
ATOM      4  C   UNL     1      46.166  11.300  16.698  0.00  0.00    +0.056 C 
BRANCH   4   5
ATOM      5  C   UNL     1      46.665  10.876  15.341  0.00  0.00    -0.050 C 
ATOM      6  C   UNL     1      47.452  11.668  14.655  0.00  0.00    +0.003 C 
ENDBRANCH   4   5
ENDBRANCH   3   4
ENDBRANCH   2   3
TORSDOF 5
ENDMDL
