MODEL 1
REMARK VINA RESULT:      -5.8      0.000      0.000
REMARK  Name = ZINC13328057
REMARK  4 active torsions:
REMARK  status: ('A' for Active; 'I' for Inactive)
REMARK    1  A    between atoms: C3_3  and  O6_19
REMARK    2  A    between atoms: C6_6  and  O1_7
REMARK    3  A    between atoms: C10_13  and  C13_17
REMARK    4  A    between atoms: C13_17  and  O5_18
REMARK                            x       y       z     vdW  Elec       q    Type
REMARK                         _______ _______ _______ _____ _____    ______ ____
ROOT
ATOM      1  C   UNL     1      41.123  20.000  19.309  0.00  0.00    +0.041 A 
ATOM      2  C   UNL     1      40.995  21.244  18.726  0.00  0.00    +0.041 A 
ATOM      3  C   UNL     1      41.989  22.202  18.889  0.00  0.00    +0.148 A 
ATOM      6  C   UNL     1      43.129  21.909  19.647  0.00  0.00    -0.128 A 
ATOM      7  C   UNL     1      43.259  20.641  20.242  0.00  0.00    -0.130 A 
ATOM      8  C   UNL     1      44.444  20.275  21.056  0.00  0.00    +0.472 C 
ATOM      9  C   UNL     1      45.364  21.363  21.417  0.00  0.00    -0.251 A 
ATOM     10  C   UNL     1      46.406  21.458  22.259  0.00  0.00    +0.315 A 
ATOM     11  O   UNL     1      46.895  22.710  22.194  0.00  0.00    -0.166 OA
ATOM     12  C   UNL     1      46.201  23.461  21.320  0.00  0.00    +0.092 A 
ATOM     16  C   UNL     1      45.227  22.706  20.787  0.00  0.00    -0.222 A 
ATOM     17  O   UNL     1      44.644  19.128  21.409  0.00  0.00    -0.419 OA
ATOM     18  C   UNL     1      44.169  22.957  19.799  0.00  0.00    +0.468 C 
ATOM     19  O   UNL     1      44.146  23.978  19.136  0.00  0.00    -0.412 OA
ATOM     20  C   UNL     1      42.247  19.690  20.066  0.00  0.00    +0.149 A 
ENDROOT
BRANCH   3   4
ATOM      4  O   UNL     1      41.854  23.421  18.310  0.00  0.00    -0.474 OA
ATOM      5  H   UNL     1      41.425  24.079  18.874  0.00  0.00    +0.399 HD
ENDBRANCH   3   4
BRANCH  20  21
ATOM     21  O   UNL     1      42.363  18.464  20.634  0.00  0.00    -0.477 OA
ATOM     22  H   UNL     1      42.521  18.485  21.588  0.00  0.00    +0.402 HD
ENDBRANCH  20  21
BRANCH  12  13
ATOM     13  C   UNL     1      46.470  24.908  20.994  0.00  0.00    +0.322 C 
BRANCH  13  14
ATOM     14  O   UNL     1      45.365  25.706  21.421  0.00  0.00    -0.562 OA
ATOM     15  H   UNL     1      44.939  26.203  20.709  0.00  0.00    +0.395 HD
ENDBRANCH  13  14
ENDBRANCH  12  13
TORSDOF 4
ENDMDL
MODEL 2
REMARK VINA RESULT:      -5.2      4.156      5.855
REMARK  Name = ZINC13328057
REMARK  4 active torsions:
REMARK  status: ('A' for Active; 'I' for Inactive)
REMARK    1  A    between atoms: C3_3  and  O6_19
REMARK    2  A    between atoms: C6_6  and  O1_7
REMARK    3  A    between atoms: C10_13  and  C13_17
REMARK    4  A    between atoms: C13_17  and  O5_18
REMARK                            x       y       z     vdW  Elec       q    Type
REMARK                         _______ _______ _______ _____ _____    ______ ____
ROOT
ATOM      1  C   UNL     1      46.465  14.176  18.887  0.00  0.00    +0.041 A 
ATOM      2  C   UNL     1      46.665  15.060  17.847  0.00  0.00    +0.041 A 
ATOM      3  C   UNL     1      46.165  16.355  17.919  0.00  0.00    +0.148 A 
ATOM      6  C   UNL     1      45.456  16.772  19.051  0.00  0.00    -0.128 A 
ATOM      7  C   UNL     1      45.252  15.870  20.113  0.00  0.00    -0.130 A 
ATOM      8  C   UNL     1      44.508  16.256  21.336  0.00  0.00    +0.472 C 
ATOM      9  C   UNL     1      43.786  17.535  21.300  0.00  0.00    -0.251 A 
ATOM     10  C   UNL     1      42.888  18.120  22.110  0.00  0.00    +0.315 A 
ATOM     11  O   UNL     1      42.552  19.313  21.585  0.00  0.00    -0.166 OA
ATOM     12  C   UNL     1      43.210  19.544  20.435  0.00  0.00    +0.092 A 
ATOM     16  C   UNL     1      44.001  18.490  20.177  0.00  0.00    -0.222 A 
ATOM     17  O   UNL     1      44.495  15.546  22.324  0.00  0.00    -0.419 OA
ATOM     18  C   UNL     1      44.938  18.162  19.093  0.00  0.00    +0.468 C 
ATOM     19  O   UNL     1      45.272  18.991  18.267  0.00  0.00    -0.412 OA
ATOM     20  C   UNL     1      45.764  14.571  20.020  0.00  0.00    +0.149 A 
ENDROOT
BRANCH   3   4
ATOM      4  O   UNL     1      46.368  17.216  16.891  0.00  0.00    -0.474 OA
ATOM      5  H   UNL     1      46.937  17.966  17.113  0.00  0.00    +0.399 HD
ENDBRANCH   3   4
BRANCH  20  21
ATOM     21  O   UNL     1      45.574  13.694  21.038  0.00  0.00    -0.477 OA
ATOM     22  H   UNL     1      45.097  14.065  21.794  0.00  0.00    +0.402 HD
ENDBRANCH  20  21
BRANCH  12  13
ATOM     13  C   UNL     1      43.079  20.777  19.578  0.00  0.00    +0.322 C 
BRANCH  13  14
ATOM     14  O   UNL     1      42.496  20.425  18.322  0.00  0.00    -0.562 OA
ATOM     15  H   UNL     1      41.728  19.842  18.395  0.00  0.00    +0.395 HD
ENDBRANCH  13  14
ENDBRANCH  12  13
TORSDOF 4
ENDMDL
MODEL 3
REMARK VINA RESULT:      -5.2      1.495      4.032
REMARK  Name = ZINC13328057
REMARK  4 active torsions:
REMARK  status: ('A' for Active; 'I' for Inactive)
REMARK    1  A    between atoms: C3_3  and  O6_19
REMARK    2  A    between atoms: C6_6  and  O1_7
REMARK    3  A    between atoms: C10_13  and  C13_17
REMARK    4  A    between atoms: C13_17  and  O5_18
REMARK                            x       y       z     vdW  Elec       q    Type
REMARK                         _______ _______ _______ _____ _____    ______ ____
ROOT
ATOM      1  C   UNL     1      40.784  21.888  18.554  0.00  0.00    +0.041 A 
ATOM      2  C   UNL     1      40.497  20.609  18.984  0.00  0.00    +0.041 A 
ATOM      3  C   UNL     1      41.444  19.877  19.691  0.00  0.00    +0.148 A 
ATOM      6  C   UNL     1      42.696  20.434  19.973  0.00  0.00    -0.128 A 
ATOM      7  C   UNL     1      42.989  21.739  19.534  0.00  0.00    -0.130 A 
ATOM      8  C   UNL     1      44.299  22.380  19.802  0.00  0.00    +0.472 C 
ATOM      9  C   UNL     1      45.365  21.519  20.333  0.00  0.00    -0.251 A 
ATOM     10  C   UNL     1      46.684  21.683  20.525  0.00  0.00    +0.315 A 
ATOM     11  O   UNL     1      47.183  20.550  21.051  0.00  0.00    -0.166 OA
ATOM     12  C   UNL     1      46.223  19.623  21.218  0.00  0.00    +0.092 A 
ATOM     16  C   UNL     1      45.056  20.138  20.798  0.00  0.00    -0.222 A 
ATOM     17  O   UNL     1      44.483  23.564  19.590  0.00  0.00    -0.419 OA
ATOM     18  C   UNL     1      43.681  19.622  20.730  0.00  0.00    +0.468 C 
ATOM     19  O   UNL     1      43.366  18.577  21.268  0.00  0.00    -0.412 OA
ATOM     20  C   UNL     1      42.022  22.459  18.823  0.00  0.00    +0.149 A 
ENDROOT
BRANCH   3   4
ATOM      4  O   UNL     1      41.151  18.620  20.111  0.00  0.00    -0.474 OA
ATOM      5  H   UNL     1      40.701  18.586  20.966  0.00  0.00    +0.399 HD
ENDBRANCH   3   4
BRANCH  20  21
ATOM     21  O   UNL     1      42.294  23.718  18.396  0.00  0.00    -0.477 OA
ATOM     22  H   UNL     1      42.540  23.773  17.463  0.00  0.00    +0.402 HD
ENDBRANCH  20  21
BRANCH  12  13
ATOM     13  C   UNL     1      46.422  18.240  21.782  0.00  0.00    +0.322 C 
BRANCH  13  14
ATOM     14  O   UNL     1      46.140  17.269  20.772  0.00  0.00    -0.562 OA
ATOM     15  H   UNL     1      45.515  17.571  20.100  0.00  0.00    +0.395 HD
ENDBRANCH  13  14
ENDBRANCH  12  13
TORSDOF 4
ENDMDL
MODEL 4
REMARK VINA RESULT:      -5.1     20.317     22.397
REMARK  Name = ZINC13328057
REMARK  4 active torsions:
REMARK  status: ('A' for Active; 'I' for Inactive)
REMARK    1  A    between atoms: C3_3  and  O6_19
REMARK    2  A    between atoms: C6_6  and  O1_7
REMARK    3  A    between atoms: C10_13  and  C13_17
REMARK    4  A    between atoms: C13_17  and  O5_18
REMARK                            x       y       z     vdW  Elec       q    Type
REMARK                         _______ _______ _______ _____ _____    ______ ____
ROOT
ATOM      1  C   UNL     1      53.091  34.185   7.203  0.00  0.00    +0.041 A 
ATOM      2  C   UNL     1      51.787  34.235   6.756  0.00  0.00    +0.041 A 
ATOM      3  C   UNL     1      51.465  33.796   5.477  0.00  0.00    +0.148 A 
ATOM      6  C   UNL     1      52.465  33.299   4.633  0.00  0.00    -0.128 A 
ATOM      7  C   UNL     1      53.795  33.249   5.089  0.00  0.00    -0.130 A 
ATOM      8  C   UNL     1      54.896  32.733   4.238  0.00  0.00    +0.472 C 
ATOM      9  C   UNL     1      54.587  32.500   2.820  0.00  0.00    -0.251 A 
ATOM     10  C   UNL     1      55.334  32.222   1.740  0.00  0.00    +0.315 A 
ATOM     11  O   UNL     1      54.519  32.106   0.675  0.00  0.00    -0.166 OA
ATOM     12  C   UNL     1      53.234  32.301   1.020  0.00  0.00    +0.092 A 
ATOM     16  C   UNL     1      53.179  32.553   2.337  0.00  0.00    -0.222 A 
ATOM     17  O   UNL     1      56.003  32.514   4.693  0.00  0.00    -0.419 OA
ATOM     18  C   UNL     1      52.083  32.840   3.274  0.00  0.00    +0.468 C 
ATOM     19  O   UNL     1      50.917  32.709   2.950  0.00  0.00    -0.412 OA
ATOM     20  C   UNL     1      54.098  33.695   6.380  0.00  0.00    +0.149 A 
ENDROOT
BRANCH   3   4
ATOM      4  O   UNL     1      50.179  33.848   5.048  0.00  0.00    -0.474 OA
ATOM      5  H   UNL     1      49.600  33.194   5.462  0.00  0.00    +0.399 HD
ENDBRANCH   3   4
BRANCH  20  21
ATOM     21  O   UNL     1      55.377  33.650   6.829  0.00  0.00    -0.477 OA
ATOM     22  H   UNL     1      55.462  33.744   7.788  0.00  0.00    +0.402 HD
ENDBRANCH  20  21
BRANCH  12  13
ATOM     13  C   UNL     1      52.054  32.246   0.084  0.00  0.00    +0.322 C 
BRANCH  13  14
ATOM     14  O   UNL     1      51.161  31.212   0.504  0.00  0.00    -0.562 OA
ATOM     15  H   UNL     1      50.322  31.537   0.858  0.00  0.00    +0.395 HD
ENDBRANCH  13  14
ENDBRANCH  12  13
TORSDOF 4
ENDMDL
MODEL 5
REMARK VINA RESULT:      -5.1     20.305     22.444
REMARK  Name = ZINC13328057
REMARK  4 active torsions:
REMARK  status: ('A' for Active; 'I' for Inactive)
REMARK    1  A    between atoms: C3_3  and  O6_19
REMARK    2  A    between atoms: C6_6  and  O1_7
REMARK    3  A    between atoms: C10_13  and  C13_17
REMARK    4  A    between atoms: C13_17  and  O5_18
REMARK                            x       y       z     vdW  Elec       q    Type
REMARK                         _______ _______ _______ _____ _____    ______ ____
ROOT
ATOM      1  C   UNL     1      51.626  34.017   6.674  0.00  0.00    +0.041 A 
ATOM      2  C   UNL     1      52.912  33.902   7.160  0.00  0.00    +0.041 A 
ATOM      3  C   UNL     1      53.950  33.521   6.318  0.00  0.00    +0.148 A 
ATOM      6  C   UNL     1      53.697  33.253   4.968  0.00  0.00    -0.128 A 
ATOM      7  C   UNL     1      52.385  33.371   4.471  0.00  0.00    -0.130 A 
ATOM      8  C   UNL     1      52.058  33.099   3.050  0.00  0.00    +0.472 C 
ATOM      9  C   UNL     1      53.107  32.472   2.234  0.00  0.00    -0.251 A 
ATOM     10  C   UNL     1      53.130  31.928   1.007  0.00  0.00    +0.315 A 
ATOM     11  O   UNL     1      54.379  31.497   0.753  0.00  0.00    -0.166 OA
ATOM     12  C   UNL     1      55.201  31.742   1.790  0.00  0.00    +0.092 A 
ATOM     16  C   UNL     1      54.496  32.348   2.759  0.00  0.00    -0.222 A 
ATOM     17  O   UNL     1      50.971  33.382   2.582  0.00  0.00    -0.419 OA
ATOM     18  C   UNL     1      54.831  32.850   4.099  0.00  0.00    +0.468 C 
ATOM     19  O   UNL     1      55.984  32.930   4.479  0.00  0.00    -0.412 OA
ATOM     20  C   UNL     1      51.354  33.756   5.336  0.00  0.00    +0.149 A 
ENDROOT
BRANCH   3   4
ATOM      4  O   UNL     1      55.211  33.412   6.806  0.00  0.00    -0.474 OA
ATOM      5  H   UNL     1      55.282  32.851   7.591  0.00  0.00    +0.399 HD
ENDBRANCH   3   4
BRANCH  20  21
ATOM     21  O   UNL     1      50.087  33.873   4.867  0.00  0.00    -0.477 OA
ATOM     22  H   UNL     1      49.405  33.642   5.513  0.00  0.00    +0.402 HD
ENDBRANCH  20  21
BRANCH  12  13
ATOM     13  C   UNL     1      56.666  31.395   1.853  0.00  0.00    +0.322 C 
BRANCH  13  14
ATOM     14  O   UNL     1      56.869  30.358   2.814  0.00  0.00    -0.562 OA
ATOM     15  H   UNL     1      56.484  29.507   2.562  0.00  0.00    +0.395 HD
ENDBRANCH  13  14
ENDBRANCH  12  13
TORSDOF 4
ENDMDL
MODEL 6
REMARK VINA RESULT:      -5.0      4.237      6.586
REMARK  Name = ZINC13328057
REMARK  4 active torsions:
REMARK  status: ('A' for Active; 'I' for Inactive)
REMARK    1  A    between atoms: C3_3  and  O6_19
REMARK    2  A    between atoms: C6_6  and  O1_7
REMARK    3  A    between atoms: C10_13  and  C13_17
REMARK    4  A    between atoms: C13_17  and  O5_18
REMARK                            x       y       z     vdW  Elec       q    Type
REMARK                         _______ _______ _______ _____ _____    ______ ____
ROOT
ATOM      1  C   UNL     1      43.608  20.311  19.693  0.00  0.00    +0.041 A 
ATOM      2  C   UNL     1      44.440  20.034  18.628  0.00  0.00    +0.041 A 
ATOM      3  C   UNL     1      45.050  18.790  18.518  0.00  0.00    +0.148 A 
ATOM      6  C   UNL     1      44.823  17.808  19.489  0.00  0.00    -0.128 A 
ATOM      7  C   UNL     1      43.975  18.091  20.576  0.00  0.00    -0.130 A 
ATOM      8  C   UNL     1      43.699  17.090  21.635  0.00  0.00    +0.472 C 
ATOM      9  C   UNL     1      44.529  15.877  21.637  0.00  0.00    -0.251 A 
ATOM     10  C   UNL     1      44.697  14.867  22.505  0.00  0.00    +0.315 A 
ATOM     11  O   UNL     1      45.596  14.007  21.992  0.00  0.00    -0.166 OA
ATOM     12  C   UNL     1      46.036  14.420  20.790  0.00  0.00    +0.092 A 
ATOM     16  C   UNL     1      45.427  15.577  20.487  0.00  0.00    -0.222 A 
ATOM     17  O   UNL     1      42.826  17.266  22.465  0.00  0.00    -0.419 OA
ATOM     18  C   UNL     1      45.492  16.492  19.338  0.00  0.00    +0.468 C 
ATOM     19  O   UNL     1      46.069  16.185  18.311  0.00  0.00    -0.412 OA
ATOM     20  C   UNL     1      43.370  19.350  20.668  0.00  0.00    +0.149 A 
ENDROOT
BRANCH   3   4
ATOM      4  O   UNL     1      45.865  18.527  17.465  0.00  0.00    -0.474 OA
ATOM      5  H   UNL     1      46.616  17.958  17.682  0.00  0.00    +0.399 HD
ENDBRANCH   3   4
BRANCH  20  21
ATOM     21  O   UNL     1      42.550  19.632  21.711  0.00  0.00    -0.477 OA
ATOM     22  H   UNL     1      42.629  20.538  22.040  0.00  0.00    +0.402 HD
ENDBRANCH  20  21
BRANCH  12  13
ATOM     13  C   UNL     1      47.044  13.705  19.928  0.00  0.00    +0.322 C 
BRANCH  13  14
ATOM     14  O   UNL     1      46.366  13.006  18.882  0.00  0.00    -0.562 OA
ATOM     15  H   UNL     1      46.325  12.048  19.010  0.00  0.00    +0.395 HD
ENDBRANCH  13  14
ENDBRANCH  12  13
TORSDOF 4
ENDMDL
MODEL 7
REMARK VINA RESULT:      -4.9     20.773     22.810
REMARK  Name = ZINC13328057
REMARK  4 active torsions:
REMARK  status: ('A' for Active; 'I' for Inactive)
REMARK    1  A    between atoms: C3_3  and  O6_19
REMARK    2  A    between atoms: C6_6  and  O1_7
REMARK    3  A    between atoms: C10_13  and  C13_17
REMARK    4  A    between atoms: C13_17  and  O5_18
REMARK                            x       y       z     vdW  Elec       q    Type
REMARK                         _______ _______ _______ _____ _____    ______ ____
ROOT
ATOM      1  C   UNL     1      51.987  33.263   5.389  0.00  0.00    +0.041 A 
ATOM      2  C   UNL     1      52.905  33.481   6.395  0.00  0.00    +0.041 A 
ATOM      3  C   UNL     1      54.264  33.314   6.156  0.00  0.00    +0.148 A 
ATOM      6  C   UNL     1      54.711  32.923   4.888  0.00  0.00    -0.128 A 
ATOM      7  C   UNL     1      53.775  32.701   3.861  0.00  0.00    -0.130 A 
ATOM      8  C   UNL     1      54.190  32.285   2.499  0.00  0.00    +0.472 C 
ATOM      9  C   UNL     1      55.593  31.883   2.325  0.00  0.00    -0.251 A 
ATOM     10  C   UNL     1      56.275  31.296   1.329  0.00  0.00    +0.315 A 
ATOM     11  O   UNL     1      57.559  31.160   1.712  0.00  0.00    -0.166 OA
ATOM     12  C   UNL     1      57.753  31.647   2.950  0.00  0.00    +0.092 A 
ATOM     16  C   UNL     1      56.584  32.118   3.412  0.00  0.00    -0.222 A 
ATOM     17  O   UNL     1      53.406  32.277   1.569  0.00  0.00    -0.419 OA
ATOM     18  C   UNL     1      56.169  32.755   4.670  0.00  0.00    +0.468 C 
ATOM     19  O   UNL     1      56.984  33.126   5.495  0.00  0.00    -0.412 OA
ATOM     20  C   UNL     1      52.411  32.875   4.123  0.00  0.00    +0.149 A 
ENDROOT
BRANCH   3   4
ATOM      4  O   UNL     1      55.158  33.532   7.153  0.00  0.00    -0.474 OA
ATOM      5  H   UNL     1      55.362  34.466   7.300  0.00  0.00    +0.399 HD
ENDBRANCH   3   4
BRANCH  20  21
ATOM     21  O   UNL     1      51.501  32.664   3.140  0.00  0.00    -0.477 OA
ATOM     22  H   UNL     1      51.891  32.470   2.276  0.00  0.00    +0.402 HD
ENDBRANCH  20  21
BRANCH  12  13
ATOM     13  C   UNL     1      59.064  31.661   3.694  0.00  0.00    +0.322 C 
BRANCH  13  14
ATOM     14  O   UNL     1      58.976  30.798   4.830  0.00  0.00    -0.562 OA
ATOM     15  H   UNL     1      59.478  29.977   4.740  0.00  0.00    +0.395 HD
ENDBRANCH  13  14
ENDBRANCH  12  13
TORSDOF 4
ENDMDL
MODEL 8
REMARK VINA RESULT:      -4.8      1.740      5.139
REMARK  Name = ZINC13328057
REMARK  4 active torsions:
REMARK  status: ('A' for Active; 'I' for Inactive)
REMARK    1  A    between atoms: C3_3  and  O6_19
REMARK    2  A    between atoms: C6_6  and  O1_7
REMARK    3  A    between atoms: C10_13  and  C13_17
REMARK    4  A    between atoms: C13_17  and  O5_18
REMARK                            x       y       z     vdW  Elec       q    Type
REMARK                         _______ _______ _______ _____ _____    ______ ____
ROOT
ATOM      1  C   UNL     1      46.328  18.784  22.503  0.00  0.00    +0.041 A 
ATOM      2  C   UNL     1      45.301  17.871  22.390  0.00  0.00    +0.041 A 
ATOM      3  C   UNL     1      44.175  18.171  21.632  0.00  0.00    +0.148 A 
ATOM      6  C   UNL     1      44.077  19.403  20.976  0.00  0.00    -0.128 A 
ATOM      7  C   UNL     1      45.125  20.335  21.092  0.00  0.00    -0.130 A 
ATOM      8  C   UNL     1      45.075  21.657  20.421  0.00  0.00    +0.472 C 
ATOM      9  C   UNL     1      43.791  22.054  19.827  0.00  0.00    -0.251 A 
ATOM     10  C   UNL     1      43.319  23.202  19.314  0.00  0.00    +0.315 A 
ATOM     11  O   UNL     1      42.053  22.998  18.904  0.00  0.00    -0.166 OA
ATOM     12  C   UNL     1      41.664  21.731  19.131  0.00  0.00    +0.092 A 
ATOM     16  C   UNL     1      42.681  21.068  19.704  0.00  0.00    -0.222 A 
ATOM     17  O   UNL     1      46.053  22.379  20.365  0.00  0.00    -0.419 OA
ATOM     18  C   UNL     1      42.860  19.688  20.176  0.00  0.00    +0.468 C 
ATOM     19  O   UNL     1      42.046  18.818  19.924  0.00  0.00    -0.412 OA
ATOM     20  C   UNL     1      46.250  20.014  21.860  0.00  0.00    +0.149 A 
ENDROOT
BRANCH   3   4
ATOM      4  O   UNL     1      43.171  17.265  21.526  0.00  0.00    -0.474 OA
ATOM      5  H   UNL     1      42.675  17.322  20.697  0.00  0.00    +0.399 HD
ENDBRANCH   3   4
BRANCH  20  21
ATOM     21  O   UNL     1      47.266  20.905  21.977  0.00  0.00    -0.477 OA
ATOM     22  H   UNL     1      47.760  20.834  22.806  0.00  0.00    +0.402 HD
ENDBRANCH  20  21
BRANCH  12  13
ATOM     13  C   UNL     1      40.313  21.152  18.799  0.00  0.00    +0.322 C 
BRANCH  13  14
ATOM     14  O   UNL     1      39.695  21.940  17.779  0.00  0.00    -0.562 OA
ATOM     15  H   UNL     1      38.748  21.776  17.675  0.00  0.00    +0.395 HD
ENDBRANCH  13  14
ENDBRANCH  12  13
TORSDOF 4
ENDMDL
MODEL 9
REMARK VINA RESULT:      -4.8      6.594      8.659
REMARK  Name = ZINC13328057
REMARK  4 active torsions:
REMARK  status: ('A' for Active; 'I' for Inactive)
REMARK    1  A    between atoms: C3_3  and  O6_19
REMARK    2  A    between atoms: C6_6  and  O1_7
REMARK    3  A    between atoms: C10_13  and  C13_17
REMARK    4  A    between atoms: C13_17  and  O5_18
REMARK                            x       y       z     vdW  Elec       q    Type
REMARK                         _______ _______ _______ _____ _____    ______ ____
ROOT
ATOM      1  C   UNL     1      51.662  20.776  17.126  0.00  0.00    +0.041 A 
ATOM      2  C   UNL     1      50.748  21.271  18.032  0.00  0.00    +0.041 A 
ATOM      3  C   UNL     1      49.811  20.427  18.618  0.00  0.00    +0.148 A 
ATOM      6  C   UNL     1      49.791  19.066  18.292  0.00  0.00    -0.128 A 
ATOM      7  C   UNL     1      50.724  18.561  17.368  0.00  0.00    -0.130 A 
ATOM      8  C   UNL     1      50.750  17.128  16.984  0.00  0.00    +0.472 C 
ATOM      9  C   UNL     1      49.616  16.302  17.420  0.00  0.00    -0.251 A 
ATOM     10  C   UNL     1      49.205  15.058  17.128  0.00  0.00    +0.315 A 
ATOM     11  O   UNL     1      48.083  14.802  17.828  0.00  0.00    -0.166 OA
ATOM     12  C   UNL     1      47.731  15.855  18.588  0.00  0.00    +0.092 A 
ATOM     16  C   UNL     1      48.627  16.837  18.399  0.00  0.00    -0.222 A 
ATOM     17  O   UNL     1      51.667  16.659  16.337  0.00  0.00    -0.419 OA
ATOM     18  C   UNL     1      48.777  18.196  18.937  0.00  0.00    +0.468 C 
ATOM     19  O   UNL     1      48.099  18.590  19.868  0.00  0.00    -0.412 OA
ATOM     20  C   UNL     1      51.659  19.427  16.789  0.00  0.00    +0.149 A 
ENDROOT
BRANCH   3   4
ATOM      4  O   UNL     1      48.916  20.924  19.509  0.00  0.00    -0.474 OA
ATOM      5  H   UNL     1      48.769  20.355  20.277  0.00  0.00    +0.399 HD
ENDBRANCH   3   4
BRANCH  20  21
ATOM     21  O   UNL     1      52.564  18.950  15.898  0.00  0.00    -0.477 OA
ATOM     22  H   UNL     1      52.198  18.315  15.267  0.00  0.00    +0.402 HD
ENDBRANCH  20  21
BRANCH  12  13
ATOM     13  C   UNL     1      46.532  15.921  19.498  0.00  0.00    +0.322 C 
BRANCH  13  14
ATOM     14  O   UNL     1      45.588  16.858  18.975  0.00  0.00    -0.562 OA
ATOM     15  H   UNL     1      45.951  17.446  18.299  0.00  0.00    +0.395 HD
ENDBRANCH  13  14
ENDBRANCH  12  13
TORSDOF 4
ENDMDL
