MODEL 1
REMARK VINA RESULT:      -7.9      0.000      0.000
REMARK  Name = ZINC95486025
REMARK  8 active torsions:
REMARK  status: ('A' for Active; 'I' for Inactive)
REMARK    1  A    between atoms: C1_1  and  C2_2
REMARK    2  A    between atoms: C2_2  and  N1_3
REMARK    3  A    between atoms: C13_17  and  C14_19
REMARK    4  A    between atoms: C14_19  and  C15_20
REMARK    5  A    between atoms: C15_20  and  C16_21
REMARK    6  A    between atoms: C16_21  and  C17_22
REMARK    7  A    between atoms: C24_30  and  O1_36
REMARK    8  A    between atoms: N4_34  and  C28_35
REMARK                            x       y       z     vdW  Elec       q    Type
REMARK                         _______ _______ _______ _____ _____    ______ ____
ROOT
ATOM     19  C   UNL     1      47.559  18.298  21.716  0.00  0.00    +0.017 C 
ENDROOT
BRANCH  19  18
ATOM     18  C   UNL     1      47.116  17.893  20.308  0.00  0.00    +0.080 C 
BRANCH  18  17
ATOM      3  N   UNL     1      47.789  16.022  18.848  0.00  0.00    -0.382 N 
ATOM      4  H   UNL     1      47.085  16.315  18.187  0.00  0.00    +0.413 HD
ATOM      5  C   UNL     1      48.855  15.332  18.123  0.00  0.00    +0.257 C 
ATOM      6  C   UNL     1      49.603  16.261  17.149  0.00  0.00    +0.093 C 
ATOM      7  C   UNL     1      50.116  17.420  17.968  0.00  0.00    +0.031 C 
ATOM      8  C   UNL     1      50.827  18.552  17.339  0.00  0.00    -0.156 A 
ATOM      9  C   UNL     1      51.773  18.613  16.336  0.00  0.00    +0.078 A 
ATOM     10  C   UNL     1      52.242  19.868  15.972  0.00  0.00    -0.015 A 
ATOM     11  C   UNL     1      51.786  21.017  16.588  0.00  0.00    +0.057 A 
ATOM     12  C   UNL     1      50.840  20.973  17.600  0.00  0.00    -0.020 A 
ATOM     13  C   UNL     1      50.361  19.722  17.976  0.00  0.00    +0.165 A 
ATOM     14  N   UNL     1      49.420  19.408  18.969  0.00  0.00    -0.739 N 
ATOM     15  H   UNL     1      49.189  19.933  19.751  0.00  0.00    +0.423 HD
ATOM     16  C   UNL     1      48.866  18.140  18.550  0.00  0.00    +0.204 C 
ATOM     17  C   UNL     1      48.278  17.209  19.585  0.00  0.00    +0.188 C 
BRANCH   3   2
ATOM      1  C   UNL     1      45.845  14.589  19.253  0.00  0.00    +0.085 C 
ATOM      2  C   UNL     1      47.182  15.086  19.804  0.00  0.00    +0.245 C 
ENDBRANCH   3   2
ENDBRANCH  18  17
ENDBRANCH  19  18
BRANCH  19  20
ATOM     20  C   UNL     1      46.389  18.958  22.448  0.00  0.00    +0.134 C 
BRANCH  20  21
ATOM     21  C   UNL     1      46.010  20.234  21.741  0.00  0.00    +0.132 A 
ATOM     22  C   UNL     1      44.785  20.324  21.092  0.00  0.00    +0.126 A 
ATOM     23  C   UNL     1      44.457  21.527  20.441  0.00  0.00    +0.008 A 
ATOM     24  C   UNL     1      43.124  21.337  19.850  0.00  0.00    -0.109 A 
ATOM     25  C   UNL     1      42.282  22.153  19.096  0.00  0.00    +0.079 A 
ATOM     26  C   UNL     1      41.056  21.673  18.676  0.00  0.00    +0.109 A 
ATOM     29  C   UNL     1      40.663  20.379  19.004  0.00  0.00    +0.088 A 
ATOM     30  C   UNL     1      41.488  19.565  19.747  0.00  0.00    +0.027 A 
ATOM     31  C   UNL     1      42.726  20.032  20.178  0.00  0.00    +0.148 A 
ATOM     32  C   UNL     1      45.373  22.579  20.474  0.00  0.00    +0.129 A 
ATOM     33  C   UNL     1      46.565  22.398  21.144  0.00  0.00    +0.300 A 
ATOM     34  N   UNL     1      43.735  19.441  20.923  0.00  0.00    -0.478 N 
ATOM     35  C   UNL     1      43.695  18.077  21.455  0.00  0.00    +0.334 C 
ATOM     36  N   UNL     1      46.840  21.257  21.749  0.00  0.00    -0.420 N 
ATOM     37  H   UNL     1      47.687  21.166  22.214  0.00  0.00    +0.451 HD
BRANCH  26  27
ATOM     27  O   UNL     1      40.233  22.467  17.941  0.00  0.00    -0.486 OA
ATOM     28  H   UNL     1      40.506  22.571  17.020  0.00  0.00    +0.405 HD
ENDBRANCH  26  27
ENDBRANCH  20  21
ENDBRANCH  19  20
TORSDOF 6
ENDMDL
MODEL 2
REMARK VINA RESULT:      -7.8      0.900      2.144
REMARK  Name = ZINC95486025
REMARK  8 active torsions:
REMARK  status: ('A' for Active; 'I' for Inactive)
REMARK    1  A    between atoms: C1_1  and  C2_2
REMARK    2  A    between atoms: C2_2  and  N1_3
REMARK    3  A    between atoms: C13_17  and  C14_19
REMARK    4  A    between atoms: C14_19  and  C15_20
REMARK    5  A    between atoms: C15_20  and  C16_21
REMARK    6  A    between atoms: C16_21  and  C17_22
REMARK    7  A    between atoms: C24_30  and  O1_36
REMARK    8  A    between atoms: N4_34  and  C28_35
REMARK                            x       y       z     vdW  Elec       q    Type
REMARK                         _______ _______ _______ _____ _____    ______ ____
ROOT
ATOM     19  C   UNL     1      47.225  18.701  21.757  0.00  0.00    +0.017 C 
ENDROOT
BRANCH  19  18
ATOM     18  C   UNL     1      46.856  18.438  20.295  0.00  0.00    +0.080 C 
BRANCH  18  17
ATOM      3  N   UNL     1      47.372  16.449  18.929  0.00  0.00    -0.382 N 
ATOM      4  H   UNL     1      46.716  16.782  18.239  0.00  0.00    +0.413 HD
ATOM      5  C   UNL     1      48.380  15.627  18.262  0.00  0.00    +0.257 C 
ATOM      6  C   UNL     1      49.238  16.435  17.272  0.00  0.00    +0.093 C 
ATOM      7  C   UNL     1      49.847  17.572  18.057  0.00  0.00    +0.031 C 
ATOM      8  C   UNL     1      50.681  18.600  17.403  0.00  0.00    -0.156 A 
ATOM      9  C   UNL     1      51.651  18.524  16.423  0.00  0.00    +0.078 A 
ATOM     10  C   UNL     1      52.251  19.711  16.023  0.00  0.00    -0.015 A 
ATOM     11  C   UNL     1      51.898  20.924  16.580  0.00  0.00    +0.057 A 
ATOM     12  C   UNL     1      50.930  21.017  17.567  0.00  0.00    -0.020 A 
ATOM     13  C   UNL     1      50.320  19.836  17.980  0.00  0.00    +0.165 A 
ATOM     14  N   UNL     1      49.330  19.659  18.959  0.00  0.00    -0.739 N 
ATOM     15  H   UNL     1      49.135  20.237  19.714  0.00  0.00    +0.423 HD
ATOM     16  C   UNL     1      48.661  18.435  18.576  0.00  0.00    +0.204 C 
ATOM     17  C   UNL     1      47.961  17.612  19.632  0.00  0.00    +0.188 C 
BRANCH   3   2
ATOM      1  C   UNL     1      45.662  14.713  19.173  0.00  0.00    +0.085 C 
ATOM      2  C   UNL     1      46.653  15.619  19.905  0.00  0.00    +0.245 C 
ENDBRANCH   3   2
ENDBRANCH  18  17
ENDBRANCH  19  18
BRANCH  19  20
ATOM     20  C   UNL     1      46.129  19.541  22.416  0.00  0.00    +0.134 C 
BRANCH  20  21
ATOM     21  C   UNL     1      44.779  18.983  22.047  0.00  0.00    +0.132 A 
ATOM     22  C   UNL     1      43.934  19.713  21.220  0.00  0.00    +0.126 A 
ATOM     23  C   UNL     1      42.680  19.168  20.891  0.00  0.00    +0.008 A 
ATOM     24  C   UNL     1      42.012  20.145  20.018  0.00  0.00    -0.109 A 
ATOM     25  C   UNL     1      40.772  20.174  19.382  0.00  0.00    +0.079 A 
ATOM     26  C   UNL     1      40.424  21.264  18.606  0.00  0.00    +0.109 A 
ATOM     29  C   UNL     1      41.307  22.329  18.461  0.00  0.00    +0.088 A 
ATOM     30  C   UNL     1      42.534  22.309  19.087  0.00  0.00    +0.027 A 
ATOM     31  C   UNL     1      42.901  21.220  19.871  0.00  0.00    +0.148 A 
ATOM     32  C   UNL     1      42.336  17.919  21.408  0.00  0.00    +0.129 A 
ATOM     33  C   UNL     1      43.239  17.266  22.221  0.00  0.00    +0.300 A 
ATOM     34  N   UNL     1      44.047  20.943  20.599  0.00  0.00    -0.478 N 
ATOM     35  C   UNL     1      45.212  21.825  20.697  0.00  0.00    +0.334 C 
ATOM     36  N   UNL     1      44.411  17.805  22.505  0.00  0.00    -0.420 N 
ATOM     37  H   UNL     1      45.023  17.315  23.079  0.00  0.00    +0.451 HD
BRANCH  26  27
ATOM     27  O   UNL     1      39.215  21.294  17.984  0.00  0.00    -0.486 OA
ATOM     28  H   UNL     1      38.926  22.181  17.728  0.00  0.00    +0.405 HD
ENDBRANCH  26  27
ENDBRANCH  20  21
ENDBRANCH  19  20
TORSDOF 6
ENDMDL
MODEL 3
REMARK VINA RESULT:      -6.8      3.671      7.598
REMARK  Name = ZINC95486025
REMARK  8 active torsions:
REMARK  status: ('A' for Active; 'I' for Inactive)
REMARK    1  A    between atoms: C1_1  and  C2_2
REMARK    2  A    between atoms: C2_2  and  N1_3
REMARK    3  A    between atoms: C13_17  and  C14_19
REMARK    4  A    between atoms: C14_19  and  C15_20
REMARK    5  A    between atoms: C15_20  and  C16_21
REMARK    6  A    between atoms: C16_21  and  C17_22
REMARK    7  A    between atoms: C24_30  and  O1_36
REMARK    8  A    between atoms: N4_34  and  C28_35
REMARK                            x       y       z     vdW  Elec       q    Type
REMARK                         _______ _______ _______ _____ _____    ______ ____
ROOT
ATOM     19  C   UNL     1      46.827  16.323  19.965  0.00  0.00    +0.017 C 
ENDROOT
BRANCH  19  18
ATOM     18  C   UNL     1      46.389  17.004  18.667  0.00  0.00    +0.080 C 
BRANCH  18  17
ATOM      3  N   UNL     1      46.098  19.135  19.877  0.00  0.00    -0.382 N 
ATOM      4  H   UNL     1      46.389  18.667  20.722  0.00  0.00    +0.413 HD
ATOM      5  C   UNL     1      46.425  20.555  19.989  0.00  0.00    +0.257 C 
ATOM      6  C   UNL     1      47.942  20.806  20.066  0.00  0.00    +0.093 C 
ATOM      7  C   UNL     1      48.547  20.169  18.839  0.00  0.00    +0.031 C 
ATOM      8  C   UNL     1      50.008  20.154  18.620  0.00  0.00    -0.156 A 
ATOM      9  C   UNL     1      50.988  21.104  18.825  0.00  0.00    +0.078 A 
ATOM     10  C   UNL     1      52.295  20.756  18.511  0.00  0.00    -0.015 A 
ATOM     11  C   UNL     1      52.610  19.508  18.010  0.00  0.00    +0.057 A 
ATOM     12  C   UNL     1      51.638  18.544  17.793  0.00  0.00    -0.020 A 
ATOM     13  C   UNL     1      50.323  18.879  18.103  0.00  0.00    +0.165 A 
ATOM     14  N   UNL     1      49.166  18.096  17.967  0.00  0.00    -0.739 N 
ATOM     15  H   UNL     1      49.026  17.349  17.364  0.00  0.00    +0.423 HD
ATOM     16  C   UNL     1      48.245  18.645  18.937  0.00  0.00    +0.204 C 
ATOM     17  C   UNL     1      46.758  18.488  18.720  0.00  0.00    +0.188 C 
BRANCH   3   2
ATOM      1  C   UNL     1      44.119  20.053  18.764  0.00  0.00    +0.085 C 
ATOM      2  C   UNL     1      44.643  18.993  19.733  0.00  0.00    +0.245 C 
ENDBRANCH   3   2
ENDBRANCH  18  17
ENDBRANCH  19  18
BRANCH  19  20
ATOM     20  C   UNL     1      47.234  14.878  19.670  0.00  0.00    +0.134 C 
BRANCH  20  21
ATOM     21  C   UNL     1      48.661  14.848  19.186  0.00  0.00    +0.132 A 
ATOM     22  C   UNL     1      48.949  14.345  17.923  0.00  0.00    +0.126 A 
ATOM     23  C   UNL     1      50.289  14.329  17.497  0.00  0.00    +0.008 A 
ATOM     24  C   UNL     1      50.294  13.752  16.144  0.00  0.00    -0.109 A 
ATOM     25  C   UNL     1      51.301  13.480  15.219  0.00  0.00    +0.079 A 
ATOM     26  C   UNL     1      50.979  12.919  13.998  0.00  0.00    +0.109 A 
ATOM     29  C   UNL     1      49.654  12.625  13.693  0.00  0.00    +0.088 A 
ATOM     30  C   UNL     1      48.652  12.889  14.600  0.00  0.00    +0.027 A 
ATOM     31  C   UNL     1      48.959  13.454  15.835  0.00  0.00    +0.148 A 
ATOM     32  C   UNL     1      51.273  14.818  18.357  0.00  0.00    +0.129 A 
ATOM     33  C   UNL     1      50.893  15.298  19.593  0.00  0.00    +0.300 A 
ATOM     34  N   UNL     1      48.168  13.817  16.913  0.00  0.00    -0.478 N 
ATOM     35  C   UNL     1      46.712  13.663  16.975  0.00  0.00    +0.334 C 
ATOM     36  N   UNL     1      49.624  15.303  19.960  0.00  0.00    -0.420 N 
ATOM     37  H   UNL     1      49.393  15.652  20.837  0.00  0.00    +0.451 HD
BRANCH  26  27
ATOM     27  O   UNL     1      51.959  12.654  13.094  0.00  0.00    -0.486 OA
ATOM     28  H   UNL     1      51.980  11.734  12.795  0.00  0.00    +0.405 HD
ENDBRANCH  26  27
ENDBRANCH  20  21
ENDBRANCH  19  20
TORSDOF 6
ENDMDL
MODEL 4
REMARK VINA RESULT:      -6.7      3.470      8.902
REMARK  Name = ZINC95486025
REMARK  8 active torsions:
REMARK  status: ('A' for Active; 'I' for Inactive)
REMARK    1  A    between atoms: C1_1  and  C2_2
REMARK    2  A    between atoms: C2_2  and  N1_3
REMARK    3  A    between atoms: C13_17  and  C14_19
REMARK    4  A    between atoms: C14_19  and  C15_20
REMARK    5  A    between atoms: C15_20  and  C16_21
REMARK    6  A    between atoms: C16_21  and  C17_22
REMARK    7  A    between atoms: C24_30  and  O1_36
REMARK    8  A    between atoms: N4_34  and  C28_35
REMARK                            x       y       z     vdW  Elec       q    Type
REMARK                         _______ _______ _______ _____ _____    ______ ____
ROOT
ATOM     19  C   UNL     1      45.872  17.368  19.532  0.00  0.00    +0.017 C 
ENDROOT
BRANCH  19  18
ATOM     18  C   UNL     1      45.809  17.936  20.952  0.00  0.00    +0.080 C 
BRANCH  18  17
ATOM      3  N   UNL     1      46.680  20.166  20.356  0.00  0.00    -0.382 N 
ATOM      4  H   UNL     1      46.897  19.810  19.438  0.00  0.00    +0.413 HD
ATOM      5  C   UNL     1      46.447  21.606  20.259  0.00  0.00    +0.257 C 
ATOM      6  C   UNL     1      45.209  21.946  19.409  0.00  0.00    +0.093 C 
ATOM      7  C   UNL     1      44.045  21.213  20.031  0.00  0.00    +0.031 C 
ATOM      8  C   UNL     1      42.698  21.255  19.427  0.00  0.00    -0.156 A 
ATOM      9  C   UNL     1      41.972  22.273  18.843  0.00  0.00    +0.078 A 
ATOM     10  C   UNL     1      40.707  21.965  18.361  0.00  0.00    -0.015 A 
ATOM     11  C   UNL     1      40.187  20.689  18.459  0.00  0.00    +0.057 A 
ATOM     12  C   UNL     1      40.901  19.656  19.045  0.00  0.00    -0.020 A 
ATOM     13  C   UNL     1      42.170  19.950  19.535  0.00  0.00    +0.165 A 
ATOM     14  N   UNL     1      43.080  19.095  20.175  0.00  0.00    -0.739 N 
ATOM     15  H   UNL     1      42.882  18.280  20.663  0.00  0.00    +0.423 HD
ATOM     16  C   UNL     1      44.372  19.695  19.927  0.00  0.00    +0.204 C 
ATOM     17  C   UNL     1      45.508  19.435  20.888  0.00  0.00    +0.188 C 
BRANCH   3   2
ATOM      1  C   UNL     1      49.087  19.718  20.398  0.00  0.00    +0.085 C 
ATOM      2  C   UNL     1      47.829  19.930  21.241  0.00  0.00    +0.245 C 
ENDBRANCH   3   2
ENDBRANCH  18  17
ENDBRANCH  19  18
BRANCH  19  20
ATOM     20  C   UNL     1      47.076  16.432  19.410  0.00  0.00    +0.134 C 
BRANCH  20  21
ATOM     21  C   UNL     1      46.621  15.093  18.891  0.00  0.00    +0.132 A 
ATOM     22  C   UNL     1      47.393  14.419  17.952  0.00  0.00    +0.126 A 
ATOM     23  C   UNL     1      46.944  13.170  17.486  0.00  0.00    +0.008 A 
ATOM     24  C   UNL     1      47.945  12.699  16.516  0.00  0.00    -0.109 A 
ATOM     25  C   UNL     1      48.056  11.552  15.732  0.00  0.00    +0.079 A 
ATOM     26  C   UNL     1      49.146  11.394  14.896  0.00  0.00    +0.109 A 
ATOM     29  C   UNL     1      50.128  12.377  14.838  0.00  0.00    +0.088 A 
ATOM     30  C   UNL     1      50.027  13.514  15.609  0.00  0.00    +0.027 A 
ATOM     31  C   UNL     1      48.937  13.689  16.456  0.00  0.00    +0.148 A 
ATOM     32  C   UNL     1      45.745  12.660  17.983  0.00  0.00    +0.129 A 
ATOM     33  C   UNL     1      45.045  13.400  18.913  0.00  0.00    +0.300 A 
ATOM     34  N   UNL     1      48.588  14.712  17.323  0.00  0.00    -0.478 N 
ATOM     35  C   UNL     1      49.373  15.929  17.543  0.00  0.00    +0.334 C 
ATOM     36  N   UNL     1      45.498  14.568  19.334  0.00  0.00    -0.420 N 
ATOM     37  H   UNL     1      44.980  15.059  19.992  0.00  0.00    +0.451 HD
BRANCH  26  27
ATOM     27  O   UNL     1      49.256  10.277  14.130  0.00  0.00    -0.486 OA
ATOM     28  H   UNL     1      50.014   9.719  14.354  0.00  0.00    +0.405 HD
ENDBRANCH  26  27
ENDBRANCH  20  21
ENDBRANCH  19  20
TORSDOF 6
ENDMDL
MODEL 5
REMARK VINA RESULT:      -6.7      3.560      8.627
REMARK  Name = ZINC95486025
REMARK  8 active torsions:
REMARK  status: ('A' for Active; 'I' for Inactive)
REMARK    1  A    between atoms: C1_1  and  C2_2
REMARK    2  A    between atoms: C2_2  and  N1_3
REMARK    3  A    between atoms: C13_17  and  C14_19
REMARK    4  A    between atoms: C14_19  and  C15_20
REMARK    5  A    between atoms: C15_20  and  C16_21
REMARK    6  A    between atoms: C16_21  and  C17_22
REMARK    7  A    between atoms: C24_30  and  O1_36
REMARK    8  A    between atoms: N4_34  and  C28_35
REMARK                            x       y       z     vdW  Elec       q    Type
REMARK                         _______ _______ _______ _____ _____    ______ ____
ROOT
ATOM     19  C   UNL     1      45.125  17.014  19.652  0.00  0.00    +0.017 C 
ENDROOT
BRANCH  19  18
ATOM     18  C   UNL     1      45.309  17.673  21.021  0.00  0.00    +0.080 C 
BRANCH  18  17
ATOM      3  N   UNL     1      46.456  19.718  20.254  0.00  0.00    -0.382 N 
ATOM      4  H   UNL     1      46.582  19.281  19.354  0.00  0.00    +0.413 HD
ATOM      5  C   UNL     1      46.423  21.168  20.072  0.00  0.00    +0.257 C 
ATOM      6  C   UNL     1      45.209  21.631  19.245  0.00  0.00    +0.093 C 
ATOM      7  C   UNL     1      43.982  21.108  19.952  0.00  0.00    +0.031 C 
ATOM      8  C   UNL     1      42.629  21.305  19.393  0.00  0.00    -0.156 A 
ATOM      9  C   UNL     1      42.029  22.380  18.770  0.00  0.00    +0.078 A 
ATOM     10  C   UNL     1      40.713  22.226  18.352  0.00  0.00    -0.015 A 
ATOM     11  C   UNL     1      40.025  21.046  18.550  0.00  0.00    +0.057 A 
ATOM     12  C   UNL     1      40.612  19.958  19.177  0.00  0.00    -0.020 A 
ATOM     13  C   UNL     1      41.929  20.097  19.602  0.00  0.00    +0.165 A 
ATOM     14  N   UNL     1      42.738  19.160  20.265  0.00  0.00    -0.739 N 
ATOM     15  H   UNL     1      42.449  18.412  20.811  0.00  0.00    +0.423 HD
ATOM     16  C   UNL     1      44.089  19.556  19.935  0.00  0.00    +0.204 C 
ATOM     17  C   UNL     1      45.217  19.193  20.872  0.00  0.00    +0.188 C 
BRANCH   3   2
ATOM      1  C   UNL     1      48.899  19.771  20.414  0.00  0.00    +0.085 C 
ATOM      2  C   UNL     1      47.598  19.374  21.112  0.00  0.00    +0.245 C 
ENDBRANCH   3   2
ENDBRANCH  18  17
ENDBRANCH  19  18
BRANCH  19  20
ATOM     20  C   UNL     1      45.667  15.584  19.698  0.00  0.00    +0.134 C 
BRANCH  20  21
ATOM     21  C   UNL     1      46.857  15.468  18.781  0.00  0.00    +0.132 A 
ATOM     22  C   UNL     1      47.014  14.332  17.996  0.00  0.00    +0.126 A 
ATOM     23  C   UNL     1      48.133  14.252  17.149  0.00  0.00    +0.008 A 
ATOM     24  C   UNL     1      48.041  12.960  16.450  0.00  0.00    -0.109 A 
ATOM     25  C   UNL     1      48.839  12.321  15.504  0.00  0.00    +0.079 A 
ATOM     26  C   UNL     1      48.474  11.076  15.026  0.00  0.00    +0.109 A 
ATOM     29  C   UNL     1      47.315  10.463  15.489  0.00  0.00    +0.088 A 
ATOM     30  C   UNL     1      46.520  11.086  16.425  0.00  0.00    +0.027 A 
ATOM     31  C   UNL     1      46.872  12.340  16.916  0.00  0.00    +0.148 A 
ATOM     32  C   UNL     1      49.039  15.312  17.131  0.00  0.00    +0.129 A 
ATOM     33  C   UNL     1      48.802  16.400  17.946  0.00  0.00    +0.300 A 
ATOM     34  N   UNL     1      46.270  13.178  17.842  0.00  0.00    -0.478 N 
ATOM     35  C   UNL     1      45.025  12.883  18.555  0.00  0.00    +0.334 C 
ATOM     36  N   UNL     1      47.737  16.446  18.726  0.00  0.00    -0.420 N 
ATOM     37  H   UNL     1      47.600  17.229  19.283  0.00  0.00    +0.451 HD
BRANCH  26  27
ATOM     27  O   UNL     1      49.252  10.451  14.102  0.00  0.00    -0.486 OA
ATOM     28  H   UNL     1      50.087  10.902  13.920  0.00  0.00    +0.405 HD
ENDBRANCH  26  27
ENDBRANCH  20  21
ENDBRANCH  19  20
TORSDOF 6
ENDMDL
MODEL 6
REMARK VINA RESULT:      -6.6      2.364      3.561
REMARK  Name = ZINC95486025
REMARK  8 active torsions:
REMARK  status: ('A' for Active; 'I' for Inactive)
REMARK    1  A    between atoms: C1_1  and  C2_2
REMARK    2  A    between atoms: C2_2  and  N1_3
REMARK    3  A    between atoms: C13_17  and  C14_19
REMARK    4  A    between atoms: C14_19  and  C15_20
REMARK    5  A    between atoms: C15_20  and  C16_21
REMARK    6  A    between atoms: C16_21  and  C17_22
REMARK    7  A    between atoms: C24_30  and  O1_36
REMARK    8  A    between atoms: N4_34  and  C28_35
REMARK                            x       y       z     vdW  Elec       q    Type
REMARK                         _______ _______ _______ _____ _____    ______ ____
ROOT
ATOM     19  C   UNL     1      48.798  15.886  20.501  0.00  0.00    +0.017 C 
ENDROOT
BRANCH  19  18
ATOM     18  C   UNL     1      50.279  15.909  20.884  0.00  0.00    +0.080 C 
BRANCH  18  17
ATOM      3  N   UNL     1      50.808  14.731  18.782  0.00  0.00    -0.382 N 
ATOM      4  H   UNL     1      49.827  14.759  18.548  0.00  0.00    +0.413 HD
ATOM      5  C   UNL     1      51.586  14.684  17.545  0.00  0.00    +0.257 C 
ATOM      6  C   UNL     1      51.427  15.962  16.700  0.00  0.00    +0.093 C 
ATOM      7  C   UNL     1      51.821  17.117  17.588  0.00  0.00    +0.031 C 
ATOM      8  C   UNL     1      51.720  18.515  17.122  0.00  0.00    -0.156 A 
ATOM      9  C   UNL     1      52.011  19.115  15.914  0.00  0.00    +0.078 A 
ATOM     10  C   UNL     1      51.792  20.482  15.808  0.00  0.00    -0.015 A 
ATOM     11  C   UNL     1      51.303  21.221  16.867  0.00  0.00    +0.057 A 
ATOM     12  C   UNL     1      51.010  20.635  18.088  0.00  0.00    -0.020 A 
ATOM     13  C   UNL     1      51.225  19.266  18.211  0.00  0.00    +0.165 A 
ATOM     14  N   UNL     1      51.022  18.445  19.331  0.00  0.00    -0.739 N 
ATOM     15  H   UNL     1      51.011  18.711  20.264  0.00  0.00    +0.423 HD
ATOM     16  C   UNL     1      50.816  17.125  18.776  0.00  0.00    +0.204 C 
ATOM     17  C   UNL     1      51.134  15.910  19.616  0.00  0.00    +0.188 C 
BRANCH   3   2
ATOM      1  C   UNL     1      52.581  13.242  19.580  0.00  0.00    +0.085 C 
ATOM      2  C   UNL     1      51.076  13.512  19.558  0.00  0.00    +0.245 C 
ENDBRANCH   3   2
ENDBRANCH  18  17
ENDBRANCH  19  18
BRANCH  19  20
ATOM     20  C   UNL     1      48.097  17.107  21.100  0.00  0.00    +0.134 C 
BRANCH  20  21
ATOM     21  C   UNL     1      47.282  17.793  20.033  0.00  0.00    +0.132 A 
ATOM     22  C   UNL     1      46.850  19.099  20.229  0.00  0.00    +0.126 A 
ATOM     23  C   UNL     1      46.092  19.713  19.217  0.00  0.00    +0.008 A 
ATOM     24  C   UNL     1      45.778  21.070  19.691  0.00  0.00    -0.109 A 
ATOM     25  C   UNL     1      45.068  22.138  19.145  0.00  0.00    +0.079 A 
ATOM     26  C   UNL     1      44.946  23.317  19.856  0.00  0.00    +0.109 A 
ATOM     29  C   UNL     1      45.529  23.437  21.113  0.00  0.00    +0.088 A 
ATOM     30  C   UNL     1      46.231  22.387  21.662  0.00  0.00    +0.027 A 
ATOM     31  C   UNL     1      46.365  21.193  20.959  0.00  0.00    +0.148 A 
ATOM     32  C   UNL     1      45.806  18.989  18.059  0.00  0.00    +0.129 A 
ATOM     33  C   UNL     1      46.277  17.697  17.953  0.00  0.00    +0.300 A 
ATOM     34  N   UNL     1      47.002  20.001  21.264  0.00  0.00    -0.478 N 
ATOM     35  C   UNL     1      47.734  19.735  22.505  0.00  0.00    +0.334 C 
ATOM     36  N   UNL     1      46.991  17.151  18.921  0.00  0.00    -0.420 N 
ATOM     37  H   UNL     1      47.309  16.241  18.810  0.00  0.00    +0.451 HD
BRANCH  26  27
ATOM     27  O   UNL     1      44.254  24.360  19.325  0.00  0.00    -0.486 OA
ATOM     28  H   UNL     1      44.291  25.167  19.856  0.00  0.00    +0.405 HD
ENDBRANCH  26  27
ENDBRANCH  20  21
ENDBRANCH  19  20
TORSDOF 6
ENDMDL
MODEL 7
REMARK VINA RESULT:      -6.5      3.599      7.918
REMARK  Name = ZINC95486025
REMARK  8 active torsions:
REMARK  status: ('A' for Active; 'I' for Inactive)
REMARK    1  A    between atoms: C1_1  and  C2_2
REMARK    2  A    between atoms: C2_2  and  N1_3
REMARK    3  A    between atoms: C13_17  and  C14_19
REMARK    4  A    between atoms: C14_19  and  C15_20
REMARK    5  A    between atoms: C15_20  and  C16_21
REMARK    6  A    between atoms: C16_21  and  C17_22
REMARK    7  A    between atoms: C24_30  and  O1_36
REMARK    8  A    between atoms: N4_34  and  C28_35
REMARK                            x       y       z     vdW  Elec       q    Type
REMARK                         _______ _______ _______ _____ _____    ______ ____
ROOT
ATOM     19  C   UNL     1      47.126  21.042  18.914  0.00  0.00    +0.017 C 
ENDROOT
BRANCH  19  18
ATOM     18  C   UNL     1      45.795  20.319  18.692  0.00  0.00    +0.080 C 
BRANCH  18  17
ATOM      3  N   UNL     1      44.370  19.628  20.583  0.00  0.00    -0.382 N 
ATOM      4  H   UNL     1      43.576  19.645  19.961  0.00  0.00    +0.413 HD
ATOM      5  C   UNL     1      44.105  18.671  21.656  0.00  0.00    +0.257 C 
ATOM      6  C   UNL     1      43.989  17.225  21.140  0.00  0.00    +0.093 C 
ATOM      7  C   UNL     1      45.271  16.927  20.401  0.00  0.00    +0.031 C 
ATOM      8  C   UNL     1      45.478  15.640  19.707  0.00  0.00    -0.156 A 
ATOM      9  C   UNL     1      45.164  14.339  20.047  0.00  0.00    +0.078 A 
ATOM     10  C   UNL     1      45.502  13.341  19.143  0.00  0.00    -0.015 A 
ATOM     11  C   UNL     1      46.130  13.630  17.948  0.00  0.00    +0.057 A 
ATOM     12  C   UNL     1      46.455  14.930  17.592  0.00  0.00    -0.020 A 
ATOM     13  C   UNL     1      46.124  15.941  18.488  0.00  0.00    +0.165 A 
ATOM     14  N   UNL     1      46.352  17.322  18.373  0.00  0.00    -0.739 N 
ATOM     15  H   UNL     1      47.031  17.765  17.841  0.00  0.00    +0.423 HD
ATOM     16  C   UNL     1      45.337  17.924  19.209  0.00  0.00    +0.204 C 
ATOM     17  C   UNL     1      45.582  19.290  19.805  0.00  0.00    +0.188 C 
BRANCH   3   2
ATOM      1  C   UNL     1      45.360  20.856  22.457  0.00  0.00    +0.085 C 
ATOM      2  C   UNL     1      44.540  20.964  21.171  0.00  0.00    +0.245 C 
ENDBRANCH   3   2
ENDBRANCH  18  17
ENDBRANCH  19  18
BRANCH  19  20
ATOM     20  C   UNL     1      48.025  20.191  19.812  0.00  0.00    +0.134 C 
BRANCH  20  21
ATOM     21  C   UNL     1      49.397  20.090  19.197  0.00  0.00    +0.132 A 
ATOM     22  C   UNL     1      50.196  18.986  19.472  0.00  0.00    +0.126 A 
ATOM     23  C   UNL     1      51.471  18.918  18.883  0.00  0.00    +0.008 A 
ATOM     24  C   UNL     1      52.082  17.662  19.345  0.00  0.00    -0.109 A 
ATOM     25  C   UNL     1      53.311  17.049  19.112  0.00  0.00    +0.079 A 
ATOM     26  C   UNL     1      53.597  15.834  19.707  0.00  0.00    +0.109 A 
ATOM     29  C   UNL     1      52.661  15.226  20.538  0.00  0.00    +0.088 A 
ATOM     30  C   UNL     1      51.444  15.825  20.775  0.00  0.00    +0.027 A 
ATOM     31  C   UNL     1      51.139  17.047  20.183  0.00  0.00    +0.148 A 
ATOM     32  C   UNL     1      51.882  19.958  18.049  0.00  0.00    +0.129 A 
ATOM     33  C   UNL     1      51.021  21.014  17.834  0.00  0.00    +0.300 A 
ATOM     34  N   UNL     1      50.016  17.856  20.246  0.00  0.00    -0.478 N 
ATOM     35  C   UNL     1      48.810  17.558  21.023  0.00  0.00    +0.334 C 
ATOM     36  N   UNL     1      49.828  21.044  18.399  0.00  0.00    -0.420 N 
ATOM     37  H   UNL     1      49.247  21.802  18.222  0.00  0.00    +0.451 HD
BRANCH  26  27
ATOM     27  O   UNL     1      54.796  15.234  19.481  0.00  0.00    -0.486 OA
ATOM     28  H   UNL     1      55.273  14.993  20.287  0.00  0.00    +0.405 HD
ENDBRANCH  26  27
ENDBRANCH  20  21
ENDBRANCH  19  20
TORSDOF 6
ENDMDL
MODEL 8
REMARK VINA RESULT:      -6.2      4.545      7.031
REMARK  Name = ZINC95486025
REMARK  8 active torsions:
REMARK  status: ('A' for Active; 'I' for Inactive)
REMARK    1  A    between atoms: C1_1  and  C2_2
REMARK    2  A    between atoms: C2_2  and  N1_3
REMARK    3  A    between atoms: C13_17  and  C14_19
REMARK    4  A    between atoms: C14_19  and  C15_20
REMARK    5  A    between atoms: C15_20  and  C16_21
REMARK    6  A    between atoms: C16_21  and  C17_22
REMARK    7  A    between atoms: C24_30  and  O1_36
REMARK    8  A    between atoms: N4_34  and  C28_35
REMARK                            x       y       z     vdW  Elec       q    Type
REMARK                         _______ _______ _______ _____ _____    ______ ____
ROOT
ATOM     19  C   UNL     1      48.620  15.109  20.527  0.00  0.00    +0.017 C 
ENDROOT
BRANCH  19  18
ATOM     18  C   UNL     1      48.709  13.583  20.462  0.00  0.00    +0.080 C 
BRANCH  18  17
ATOM      3  N   UNL     1      46.532  13.761  19.316  0.00  0.00    -0.382 N 
ATOM      4  H   UNL     1      46.687  14.754  19.227  0.00  0.00    +0.413 HD
ATOM      5  C   UNL     1      45.661  13.322  18.228  0.00  0.00    +0.257 C 
ATOM      6  C   UNL     1      46.316  13.488  16.845  0.00  0.00    +0.093 C 
ATOM      7  C   UNL     1      47.616  12.722  16.889  0.00  0.00    +0.031 C 
ATOM      8  C   UNL     1      48.550  12.722  15.745  0.00  0.00    -0.156 A 
ATOM      9  C   UNL     1      48.348  12.646  14.381  0.00  0.00    +0.078 A 
ATOM     10  C   UNL     1      49.471  12.678  13.565  0.00  0.00    -0.015 A 
ATOM     11  C   UNL     1      50.744  12.779  14.089  0.00  0.00    +0.057 A 
ATOM     12  C   UNL     1      50.964  12.852  15.456  0.00  0.00    -0.020 A 
ATOM     13  C   UNL     1      49.849  12.821  16.287  0.00  0.00    +0.165 A 
ATOM     14  N   UNL     1      49.802  12.868  17.690  0.00  0.00    -0.739 N 
ATOM     15  H   UNL     1      50.500  12.613  18.313  0.00  0.00    +0.423 HD
ATOM     16  C   UNL     1      48.489  13.396  17.987  0.00  0.00    +0.204 C 
ATOM     17  C   UNL     1      47.841  13.070  19.312  0.00  0.00    +0.188 C 
BRANCH   3   2
ATOM      1  C   UNL     1      45.091  14.746  21.035  0.00  0.00    +0.085 C 
ATOM      2  C   UNL     1      45.861  13.499  20.597  0.00  0.00    +0.245 C 
ENDBRANCH   3   2
ENDBRANCH  18  17
ENDBRANCH  19  18
BRANCH  19  20
ATOM     20  C   UNL     1      50.025  15.696  20.679  0.00  0.00    +0.134 C 
BRANCH  20  21
ATOM     21  C   UNL     1      49.952  17.199  20.603  0.00  0.00    +0.132 A 
ATOM     22  C   UNL     1      50.407  17.855  19.465  0.00  0.00    +0.126 A 
ATOM     23  C   UNL     1      50.326  19.258  19.422  0.00  0.00    +0.008 A 
ATOM     24  C   UNL     1      50.872  19.671  18.120  0.00  0.00    -0.109 A 
ATOM     25  C   UNL     1      51.057  20.908  17.505  0.00  0.00    +0.079 A 
ATOM     26  C   UNL     1      51.610  20.970  16.240  0.00  0.00    +0.109 A 
ATOM     29  C   UNL     1      51.983  19.802  15.582  0.00  0.00    +0.088 A 
ATOM     30  C   UNL     1      51.805  18.575  16.182  0.00  0.00    +0.027 A 
ATOM     31  C   UNL     1      51.249  18.494  17.456  0.00  0.00    +0.148 A 
ATOM     32  C   UNL     1      49.794  19.934  20.520  0.00  0.00    +0.129 A 
ATOM     33  C   UNL     1      49.368  19.199  21.607  0.00  0.00    +0.300 A 
ATOM     34  N   UNL     1      50.962  17.416  18.279  0.00  0.00    -0.478 N 
ATOM     35  C   UNL     1      51.211  16.013  17.939  0.00  0.00    +0.334 C 
ATOM     36  N   UNL     1      49.453  17.881  21.613  0.00  0.00    -0.420 N 
ATOM     37  H   UNL     1      49.140  17.396  22.394  0.00  0.00    +0.451 HD
BRANCH  26  27
ATOM     27  O   UNL     1      51.792  22.175  15.638  0.00  0.00    -0.486 OA
ATOM     28  H   UNL     1      51.456  22.925  16.149  0.00  0.00    +0.405 HD
ENDBRANCH  26  27
ENDBRANCH  20  21
ENDBRANCH  19  20
TORSDOF 6
ENDMDL
MODEL 9
REMARK VINA RESULT:      -6.2      3.802      8.623
REMARK  Name = ZINC95486025
REMARK  8 active torsions:
REMARK  status: ('A' for Active; 'I' for Inactive)
REMARK    1  A    between atoms: C1_1  and  C2_2
REMARK    2  A    between atoms: C2_2  and  N1_3
REMARK    3  A    between atoms: C13_17  and  C14_19
REMARK    4  A    between atoms: C14_19  and  C15_20
REMARK    5  A    between atoms: C15_20  and  C16_21
REMARK    6  A    between atoms: C16_21  and  C17_22
REMARK    7  A    between atoms: C24_30  and  O1_36
REMARK    8  A    between atoms: N4_34  and  C28_35
REMARK                            x       y       z     vdW  Elec       q    Type
REMARK                         _______ _______ _______ _____ _____    ______ ____
ROOT
ATOM     19  C   UNL     1      48.099  20.839  19.975  0.00  0.00    +0.017 C 
ENDROOT
BRANCH  19  18
ATOM     18  C   UNL     1      47.126  20.518  21.111  0.00  0.00    +0.080 C 
BRANCH  18  17
ATOM      3  N   UNL     1      46.005  18.376  21.607  0.00  0.00    -0.382 N 
ATOM      4  H   UNL     1      45.733  18.753  22.502  0.00  0.00    +0.413 HD
ATOM      5  C   UNL     1      45.032  17.362  21.209  0.00  0.00    +0.257 C 
ATOM      6  C   UNL     1      43.630  17.952  20.969  0.00  0.00    +0.093 C 
ATOM      7  C   UNL     1      43.791  19.037  19.933  0.00  0.00    +0.031 C 
ATOM      8  C   UNL     1      42.649  19.873  19.509  0.00  0.00    -0.156 A 
ATOM      9  C   UNL     1      41.327  19.576  19.248  0.00  0.00    +0.078 A 
ATOM     10  C   UNL     1      40.499  20.623  18.866  0.00  0.00    -0.015 A 
ATOM     11  C   UNL     1      40.973  21.914  18.747  0.00  0.00    +0.057 A 
ATOM     12  C   UNL     1      42.298  22.229  19.001  0.00  0.00    -0.020 A 
ATOM     13  C   UNL     1      43.142  21.190  19.384  0.00  0.00    +0.165 A 
ATOM     14  N   UNL     1      44.512  21.241  19.684  0.00  0.00    -0.739 N 
ATOM     15  H   UNL     1      45.159  21.897  19.380  0.00  0.00    +0.423 HD
ATOM     16  C   UNL     1      44.731  20.109  20.556  0.00  0.00    +0.204 C 
ATOM     17  C   UNL     1      46.104  19.485  20.631  0.00  0.00    +0.188 C 
BRANCH   3   2
ATOM      1  C   UNL     1      47.180  16.417  22.491  0.00  0.00    +0.085 C 
ATOM      2  C   UNL     1      47.324  17.742  21.741  0.00  0.00    +0.245 C 
ENDBRANCH   3   2
ENDBRANCH  18  17
ENDBRANCH  19  18
BRANCH  19  20
ATOM     20  C   UNL     1      49.531  20.842  20.515  0.00  0.00    +0.134 C 
BRANCH  20  21
ATOM     21  C   UNL     1      50.451  20.208  19.503  0.00  0.00    +0.132 A 
ATOM     22  C   UNL     1      51.233  19.120  19.871  0.00  0.00    +0.126 A 
ATOM     23  C   UNL     1      52.082  18.548  18.906  0.00  0.00    +0.008 A 
ATOM     24  C   UNL     1      52.778  17.433  19.567  0.00  0.00    -0.109 A 
ATOM     25  C   UNL     1      53.727  16.506  19.140  0.00  0.00    +0.079 A 
ATOM     26  C   UNL     1      54.201  15.553  20.022  0.00  0.00    +0.109 A 
ATOM     29  C   UNL     1      53.735  15.520  21.332  0.00  0.00    +0.088 A 
ATOM     30  C   UNL     1      52.798  16.433  21.763  0.00  0.00    +0.027 A 
ATOM     31  C   UNL     1      52.309  17.398  20.888  0.00  0.00    +0.148 A 
ATOM     32  C   UNL     1      52.103  19.094  17.623  0.00  0.00    +0.129 A 
ATOM     33  C   UNL     1      51.291  20.175  17.349  0.00  0.00    +0.300 A 
ATOM     34  N   UNL     1      51.384  18.418  21.051  0.00  0.00    -0.478 N 
ATOM     35  C   UNL     1      50.667  18.708  22.295  0.00  0.00    +0.334 C 
ATOM     36  N   UNL     1      50.502  20.685  18.277  0.00  0.00    -0.420 N 
ATOM     37  H   UNL     1      49.941  21.444  18.048  0.00  0.00    +0.451 HD
BRANCH  26  27
ATOM     27  O   UNL     1      55.127  14.647  19.607  0.00  0.00    -0.486 OA
ATOM     28  H   UNL     1      55.527  14.856  18.752  0.00  0.00    +0.405 HD
ENDBRANCH  26  27
ENDBRANCH  20  21
ENDBRANCH  19  20
TORSDOF 6
ENDMDL
