MODEL 1
REMARK VINA RESULT:      -7.0      0.000      0.000
REMARK  Name = ZINC95485928
REMARK  13 active torsions:
REMARK  status: ('A' for Active; 'I' for Inactive)
REMARK    1  A    between atoms: C1_1  and  C2_2
REMARK    2  A    between atoms: C2_2  and  C28_34
REMARK    3  A    between atoms: C3_3  and  C4_4
REMARK    4  A    between atoms: C4_4  and  C5_5
REMARK    5  A    between atoms: C5_5  and  C6_6
REMARK    6  A    between atoms: C6_6  and  C27_33
REMARK    7  A    between atoms: C7_7  and  C8_8
REMARK    8  A    between atoms: C8_8  and  C9_9
REMARK    9  A    between atoms: C10_10  and  O6_32
REMARK   10  A    between atoms: C14_14  and  O1_15
REMARK   11  A    between atoms: C19_22  and  O5_31
REMARK   12  A    between atoms: C24_27  and  C25_29
REMARK   13  A    between atoms: C24_27  and  C26_30
REMARK                            x       y       z     vdW  Elec       q    Type
REMARK                         _______ _______ _______ _____ _____    ______ ____
ROOT
ATOM     11  C   UNL     1      47.855  14.158  17.847  0.00  0.00    -0.163 A 
ATOM     12  C   UNL     1      47.203  13.402  18.815  0.00  0.00    +0.198 A 
ATOM     15  C   UNL     1      46.197  13.958  19.589  0.00  0.00    -0.028 A 
ATOM     16  C   UNL     1      45.828  15.283  19.409  0.00  0.00    +0.189 A 
ATOM     17  C   UNL     1      46.495  16.051  18.439  0.00  0.00    -0.265 A 
ATOM     18  C   UNL     1      46.112  17.465  18.276  0.00  0.00    +0.448 A 
ATOM     19  C   UNL     1      45.261  18.029  19.340  0.00  0.00    -0.195 A 
ATOM     20  C   UNL     1      44.658  17.149  20.253  0.00  0.00    +0.149 A 
ATOM     21  C   UNL     1      43.860  17.666  21.268  0.00  0.00    +0.017 A 
ATOM     22  C   UNL     1      43.655  19.033  21.378  0.00  0.00    +0.154 A 
ATOM     25  C   UNL     1      44.244  19.911  20.475  0.00  0.00    +0.077 A 
ATOM     26  O   UNL     1      44.055  21.253  20.566  0.00  0.00    -0.287 OA
ATOM     27  C   UNL     1      45.144  22.093  20.180  0.00  0.00    +0.138 C 
ATOM     28  C   UNL     1      44.654  23.538  20.072  0.00  0.00    +0.088 C 
ATOM     29  C   UNL     1      46.244  22.014  21.239  0.00  0.00    +0.035 C 
ATOM     30  C   UNL     1      45.700  21.655  18.850  0.00  0.00    -0.027 C 
ATOM     31  C   UNL     1      45.660  20.369  18.504  0.00  0.00    +0.051 C 
ATOM     32  C   UNL     1      45.050  19.412  19.449  0.00  0.00    -0.024 A 
ATOM     33  O   UNL     1      46.476  18.128  17.321  0.00  0.00    -0.431 OA
ATOM     34  O   UNL     1      44.841  15.816  20.159  0.00  0.00    -0.220 OA
ATOM     35  C   UNL     1      47.508  15.483  17.656  0.00  0.00    +0.221 A 
ENDROOT
BRANCH  12  13
ATOM     13  O   UNL     1      47.556  12.105  19.002  0.00  0.00    -0.482 OA
ATOM     14  H   UNL     1      48.329  11.985  19.570  0.00  0.00    +0.401 HD
ENDBRANCH  12  13
BRANCH  22  23
ATOM     23  O   UNL     1      42.873  19.518  22.377  0.00  0.00    -0.475 OA
ATOM     24  H   UNL     1      42.079  19.975  22.068  0.00  0.00    +0.398 HD
ENDBRANCH  22  23
BRANCH  35  36
ATOM     36  O   UNL     1      48.142  16.226  16.713  0.00  0.00    -0.472 OA
ATOM     37  H   UNL     1      47.665  17.027  16.457  0.00  0.00    +0.403 HD
ENDBRANCH  35  36
BRANCH  11  10
ATOM     10  C   UNL     1      48.943  13.536  17.011  0.00  0.00    +0.134 C 
BRANCH  10   9
ATOM      7  C   UNL     1      51.189  14.078  17.801  0.00  0.00    -0.124 C 
ATOM      8  C   UNL     1      52.339  13.908  18.760  0.00  0.00    +0.073 C 
ATOM      9  C   UNL     1      50.154  13.279  17.872  0.00  0.00    -0.046 C 
BRANCH   7   6
ATOM      6  C   UNL     1      51.229  15.169  16.762  0.00  0.00    +0.063 C 
BRANCH   6   5
ATOM      5  C   UNL     1      51.504  16.512  17.442  0.00  0.00    +0.052 C 
BRANCH   5   4
ATOM      1  C   UNL     1      52.470  19.073  18.123  0.00  0.00    +0.071 C 
ATOM      2  C   UNL     1      51.944  18.808  16.737  0.00  0.00    -0.131 C 
ATOM      3  C   UNL     1      51.856  19.931  15.736  0.00  0.00    +0.071 C 
ATOM      4  C   UNL     1      51.563  17.601  16.400  0.00  0.00    -0.062 C 
ENDBRANCH   5   4
ENDBRANCH   6   5
ENDBRANCH   7   6
ENDBRANCH  10   9
ENDBRANCH  11  10
TORSDOF 8
ENDMDL
MODEL 2
REMARK VINA RESULT:      -6.9      2.142      2.743
REMARK  Name = ZINC95485928
REMARK  13 active torsions:
REMARK  status: ('A' for Active; 'I' for Inactive)
REMARK    1  A    between atoms: C1_1  and  C2_2
REMARK    2  A    between atoms: C2_2  and  C28_34
REMARK    3  A    between atoms: C3_3  and  C4_4
REMARK    4  A    between atoms: C4_4  and  C5_5
REMARK    5  A    between atoms: C5_5  and  C6_6
REMARK    6  A    between atoms: C6_6  and  C27_33
REMARK    7  A    between atoms: C7_7  and  C8_8
REMARK    8  A    between atoms: C8_8  and  C9_9
REMARK    9  A    between atoms: C10_10  and  O6_32
REMARK   10  A    between atoms: C14_14  and  O1_15
REMARK   11  A    between atoms: C19_22  and  O5_31
REMARK   12  A    between atoms: C24_27  and  C25_29
REMARK   13  A    between atoms: C24_27  and  C26_30
REMARK                            x       y       z     vdW  Elec       q    Type
REMARK                         _______ _______ _______ _____ _____    ______ ____
ROOT
ATOM     11  C   UNL     1      47.712  14.066  17.688  0.00  0.00    -0.163 A 
ATOM     12  C   UNL     1      47.072  13.309  18.664  0.00  0.00    +0.198 A 
ATOM     15  C   UNL     1      46.106  13.877  19.480  0.00  0.00    -0.028 A 
ATOM     16  C   UNL     1      45.766  15.214  19.335  0.00  0.00    +0.189 A 
ATOM     17  C   UNL     1      46.420  15.982  18.356  0.00  0.00    -0.265 A 
ATOM     18  C   UNL     1      46.069  17.408  18.230  0.00  0.00    +0.448 A 
ATOM     19  C   UNL     1      45.268  17.974  19.331  0.00  0.00    -0.195 A 
ATOM     20  C   UNL     1      44.672  17.093  20.249  0.00  0.00    +0.149 A 
ATOM     21  C   UNL     1      43.922  17.612  21.297  0.00  0.00    +0.017 A 
ATOM     22  C   UNL     1      43.755  18.981  21.437  0.00  0.00    +0.154 A 
ATOM     25  C   UNL     1      44.337  19.860  20.530  0.00  0.00    +0.077 A 
ATOM     26  O   UNL     1      44.186  21.205  20.651  0.00  0.00    -0.287 OA
ATOM     27  C   UNL     1      45.282  22.024  20.243  0.00  0.00    +0.138 C 
ATOM     28  C   UNL     1      44.828  23.482  20.176  0.00  0.00    +0.088 C 
ATOM     29  C   UNL     1      46.415  21.898  21.264  0.00  0.00    +0.035 C 
ATOM     30  C   UNL     1      45.784  21.596  18.889  0.00  0.00    -0.027 C 
ATOM     31  C   UNL     1      45.700  20.317  18.522  0.00  0.00    +0.051 C 
ATOM     32  C   UNL     1      45.097  19.359  19.470  0.00  0.00    -0.024 A 
ATOM     33  O   UNL     1      46.419  18.078  17.275  0.00  0.00    -0.431 OA
ATOM     34  O   UNL     1      44.818  15.757  20.125  0.00  0.00    -0.220 OA
ATOM     35  C   UNL     1      47.393  15.402  17.531  0.00  0.00    +0.221 A 
ENDROOT
BRANCH  12  13
ATOM     13  O   UNL     1      47.397  12.001  18.817  0.00  0.00    -0.482 OA
ATOM     14  H   UNL     1      47.441  11.505  17.989  0.00  0.00    +0.401 HD
ENDBRANCH  12  13
BRANCH  22  23
ATOM     23  O   UNL     1      43.019  19.468  22.470  0.00  0.00    -0.475 OA
ATOM     24  H   UNL     1      43.327  20.321  22.804  0.00  0.00    +0.398 HD
ENDBRANCH  22  23
BRANCH  35  36
ATOM     36  O   UNL     1      48.015  16.146  16.581  0.00  0.00    -0.472 OA
ATOM     37  H   UNL     1      48.747  15.691  16.142  0.00  0.00    +0.403 HD
ENDBRANCH  35  36
BRANCH  11  10
ATOM     10  C   UNL     1      48.756  13.432  16.806  0.00  0.00    +0.134 C 
BRANCH  10   9
ATOM      7  C   UNL     1      50.938  12.466  17.322  0.00  0.00    -0.124 C 
ATOM      8  C   UNL     1      52.322  12.546  17.916  0.00  0.00    +0.073 C 
ATOM      9  C   UNL     1      50.086  13.442  17.514  0.00  0.00    -0.046 C 
BRANCH   7   6
ATOM      6  C   UNL     1      50.536  11.264  16.507  0.00  0.00    +0.063 C 
BRANCH   6   5
ATOM      5  C   UNL     1      51.471  11.126  15.304  0.00  0.00    +0.052 C 
BRANCH   5   4
ATOM      1  C   UNL     1      52.035  13.579  14.031  0.00  0.00    +0.071 C 
ATOM      2  C   UNL     1      50.947  12.684  13.499  0.00  0.00    -0.131 C 
ATOM      3  C   UNL     1      50.101  13.135  12.336  0.00  0.00    +0.071 C 
ATOM      4  C   UNL     1      50.734  11.514  14.047  0.00  0.00    -0.062 C 
ENDBRANCH   5   4
ENDBRANCH   6   5
ENDBRANCH   7   6
ENDBRANCH  10   9
ENDBRANCH  11  10
TORSDOF 8
ENDMDL
MODEL 3
REMARK VINA RESULT:      -6.4      2.500      7.622
REMARK  Name = ZINC95485928
REMARK  13 active torsions:
REMARK  status: ('A' for Active; 'I' for Inactive)
REMARK    1  A    between atoms: C1_1  and  C2_2
REMARK    2  A    between atoms: C2_2  and  C28_34
REMARK    3  A    between atoms: C3_3  and  C4_4
REMARK    4  A    between atoms: C4_4  and  C5_5
REMARK    5  A    between atoms: C5_5  and  C6_6
REMARK    6  A    between atoms: C6_6  and  C27_33
REMARK    7  A    between atoms: C7_7  and  C8_8
REMARK    8  A    between atoms: C8_8  and  C9_9
REMARK    9  A    between atoms: C10_10  and  O6_32
REMARK   10  A    between atoms: C14_14  and  O1_15
REMARK   11  A    between atoms: C19_22  and  O5_31
REMARK   12  A    between atoms: C24_27  and  C25_29
REMARK   13  A    between atoms: C24_27  and  C26_30
REMARK                            x       y       z     vdW  Elec       q    Type
REMARK                         _______ _______ _______ _____ _____    ______ ____
ROOT
ATOM     11  C   UNL     1      46.506  17.099  20.220  0.00  0.00    -0.163 A 
ATOM     12  C   UNL     1      45.285  16.445  20.344  0.00  0.00    +0.198 A 
ATOM     15  C   UNL     1      45.080  15.209  19.751  0.00  0.00    -0.028 A 
ATOM     16  C   UNL     1      46.095  14.607  19.022  0.00  0.00    +0.189 A 
ATOM     17  C   UNL     1      47.325  15.272  18.887  0.00  0.00    -0.265 A 
ATOM     18  C   UNL     1      48.386  14.634  18.087  0.00  0.00    +0.448 A 
ATOM     19  C   UNL     1      47.969  13.487  17.261  0.00  0.00    -0.195 A 
ATOM     20  C   UNL     1      46.705  12.918  17.493  0.00  0.00    +0.149 A 
ATOM     21  C   UNL     1      46.294  11.841  16.716  0.00  0.00    +0.017 A 
ATOM     22  C   UNL     1      47.117  11.328  15.725  0.00  0.00    +0.154 A 
ATOM     25  C   UNL     1      48.371  11.883  15.493  0.00  0.00    +0.077 A 
ATOM     26  O   UNL     1      49.192  11.394  14.526  0.00  0.00    -0.287 OA
ATOM     27  C   UNL     1      50.030  12.331  13.848  0.00  0.00    +0.138 C 
ATOM     28  C   UNL     1      51.071  11.574  13.022  0.00  0.00    +0.088 C 
ATOM     29  C   UNL     1      49.175  13.189  12.913  0.00  0.00    +0.035 C 
ATOM     30  C   UNL     1      50.733  13.223  14.837  0.00  0.00    -0.027 C 
ATOM     31  C   UNL     1      50.141  13.531  15.992  0.00  0.00    +0.051 C 
ATOM     32  C   UNL     1      48.804  12.966  16.261  0.00  0.00    -0.024 A 
ATOM     33  O   UNL     1      49.538  15.030  18.107  0.00  0.00    -0.431 OA
ATOM     34  O   UNL     1      45.893  13.399  18.456  0.00  0.00    -0.220 OA
ATOM     35  C   UNL     1      47.529  16.520  19.491  0.00  0.00    +0.221 A 
ENDROOT
BRANCH  12  13
ATOM     13  O   UNL     1      44.283  17.024  21.052  0.00  0.00    -0.482 OA
ATOM     14  H   UNL     1      44.436  17.955  21.263  0.00  0.00    +0.401 HD
ENDBRANCH  12  13
BRANCH  22  23
ATOM     23  O   UNL     1      46.696  10.277  14.976  0.00  0.00    -0.475 OA
ATOM     24  H   UNL     1      45.891   9.855  15.308  0.00  0.00    +0.398 HD
ENDBRANCH  22  23
BRANCH  35  36
ATOM     36  O   UNL     1      48.722  17.154  19.366  0.00  0.00    -0.472 OA
ATOM     37  H   UNL     1      48.661  18.118  19.404  0.00  0.00    +0.403 HD
ENDBRANCH  35  36
BRANCH  11  10
ATOM     10  C   UNL     1      46.713  18.440  20.875  0.00  0.00    +0.134 C 
BRANCH  10   9
ATOM      7  C   UNL     1      46.681  20.566  19.675  0.00  0.00    -0.124 C 
ATOM      8  C   UNL     1      46.031  21.562  18.749  0.00  0.00    +0.073 C 
ATOM      9  C   UNL     1      46.019  19.506  20.066  0.00  0.00    -0.046 C 
BRANCH   7   6
ATOM      6  C   UNL     1      48.094  20.790  20.150  0.00  0.00    +0.063 C 
BRANCH   6   5
ATOM      5  C   UNL     1      49.037  20.836  18.946  0.00  0.00    +0.052 C 
BRANCH   5   4
ATOM      1  C   UNL     1      51.151  21.117  17.100  0.00  0.00    +0.071 C 
ATOM      2  C   UNL     1      51.447  20.889  18.559  0.00  0.00    -0.131 C 
ATOM      3  C   UNL     1      52.871  20.728  19.024  0.00  0.00    +0.071 C 
ATOM      4  C   UNL     1      50.466  20.831  19.425  0.00  0.00    -0.062 C 
ENDBRANCH   5   4
ENDBRANCH   6   5
ENDBRANCH   7   6
ENDBRANCH  10   9
ENDBRANCH  11  10
TORSDOF 8
ENDMDL
MODEL 4
REMARK VINA RESULT:      -6.2     20.778     24.157
REMARK  Name = ZINC95485928
REMARK  13 active torsions:
REMARK  status: ('A' for Active; 'I' for Inactive)
REMARK    1  A    between atoms: C1_1  and  C2_2
REMARK    2  A    between atoms: C2_2  and  C28_34
REMARK    3  A    between atoms: C3_3  and  C4_4
REMARK    4  A    between atoms: C4_4  and  C5_5
REMARK    5  A    between atoms: C5_5  and  C6_6
REMARK    6  A    between atoms: C6_6  and  C27_33
REMARK    7  A    between atoms: C7_7  and  C8_8
REMARK    8  A    between atoms: C8_8  and  C9_9
REMARK    9  A    between atoms: C10_10  and  O6_32
REMARK   10  A    between atoms: C14_14  and  O1_15
REMARK   11  A    between atoms: C19_22  and  O5_31
REMARK   12  A    between atoms: C24_27  and  C25_29
REMARK   13  A    between atoms: C24_27  and  C26_30
REMARK                            x       y       z     vdW  Elec       q    Type
REMARK                         _______ _______ _______ _____ _____    ______ ____
ROOT
ATOM     11  C   UNL     1      49.871  34.754   2.561  0.00  0.00    -0.163 A 
ATOM     12  C   UNL     1      50.292  34.607   1.244  0.00  0.00    +0.198 A 
ATOM     15  C   UNL     1      49.375  34.597   0.204  0.00  0.00    -0.028 A 
ATOM     16  C   UNL     1      48.019  34.732   0.467  0.00  0.00    +0.189 A 
ATOM     17  C   UNL     1      47.593  34.870   1.800  0.00  0.00    -0.265 A 
ATOM     18  C   UNL     1      46.148  34.985   2.067  0.00  0.00    +0.448 A 
ATOM     19  C   UNL     1      45.255  34.659   0.940  0.00  0.00    -0.195 A 
ATOM     20  C   UNL     1      45.813  34.542  -0.344  0.00  0.00    +0.149 A 
ATOM     21  C   UNL     1      44.986  34.226  -1.416  0.00  0.00    +0.017 A 
ATOM     22  C   UNL     1      43.626  34.034  -1.227  0.00  0.00    +0.154 A 
ATOM     25  C   UNL     1      43.065  34.153   0.040  0.00  0.00    +0.077 A 
ATOM     26  O   UNL     1      41.735  33.968   0.246  0.00  0.00    -0.287 OA
ATOM     27  C   UNL     1      41.342  33.387   1.491  0.00  0.00    +0.138 C 
ATOM     28  C   UNL     1      39.828  33.527   1.659  0.00  0.00    +0.088 C 
ATOM     29  C   UNL     1      41.714  31.903   1.497  0.00  0.00    +0.035 C 
ATOM     30  C   UNL     1      42.036  34.078   2.636  0.00  0.00    -0.027 C 
ATOM     31  C   UNL     1      43.254  34.590   2.463  0.00  0.00    +0.051 C 
ATOM     32  C   UNL     1      43.879  34.468   1.131  0.00  0.00    -0.024 A 
ATOM     33  O   UNL     1      45.717  35.328   3.154  0.00  0.00    -0.431 OA
ATOM     34  O   UNL     1      47.133  34.732  -0.549  0.00  0.00    -0.220 OA
ATOM     35  C   UNL     1      48.524  34.884   2.846  0.00  0.00    +0.221 A 
ENDROOT
BRANCH  12  13
ATOM     13  O   UNL     1      51.615  34.472   0.974  0.00  0.00    -0.482 OA
ATOM     14  H   UNL     1      52.118  35.294   1.047  0.00  0.00    +0.401 HD
ENDBRANCH  12  13
BRANCH  22  23
ATOM     23  O   UNL     1      42.835  33.725  -2.287  0.00  0.00    -0.475 OA
ATOM     24  H   UNL     1      42.972  34.291  -3.058  0.00  0.00    +0.398 HD
ENDBRANCH  22  23
BRANCH  35  36
ATOM     36  O   UNL     1      48.108  35.026   4.130  0.00  0.00    -0.472 OA
ATOM     37  H   UNL     1      47.833  35.925   4.357  0.00  0.00    +0.403 HD
ENDBRANCH  35  36
BRANCH  11  10
ATOM     10  C   UNL     1      50.882  34.768   3.678  0.00  0.00    +0.134 C 
BRANCH  10   9
ATOM      7  C   UNL     1      51.232  33.354   5.638  0.00  0.00    -0.124 C 
ATOM      8  C   UNL     1      51.089  32.050   6.380  0.00  0.00    +0.073 C 
ATOM      9  C   UNL     1      50.874  33.435   4.380  0.00  0.00    -0.046 C 
BRANCH   7   6
ATOM      6  C   UNL     1      51.788  34.565   6.342  0.00  0.00    +0.063 C 
BRANCH   6   5
ATOM      5  C   UNL     1      53.070  34.182   7.084  0.00  0.00    +0.052 C 
BRANCH   5   4
ATOM      1  C   UNL     1      54.858  32.776   5.416  0.00  0.00    +0.071 C 
ATOM      2  C   UNL     1      55.112  34.224   5.747  0.00  0.00    -0.131 C 
ATOM      3  C   UNL     1      56.365  34.902   5.256  0.00  0.00    +0.071 C 
ATOM      4  C   UNL     1      54.244  34.895   6.462  0.00  0.00    -0.062 C 
ENDBRANCH   5   4
ENDBRANCH   6   5
ENDBRANCH   7   6
ENDBRANCH  10   9
ENDBRANCH  11  10
TORSDOF 8
ENDMDL
MODEL 5
REMARK VINA RESULT:      -6.1      2.552      5.133
REMARK  Name = ZINC95485928
REMARK  13 active torsions:
REMARK  status: ('A' for Active; 'I' for Inactive)
REMARK    1  A    between atoms: C1_1  and  C2_2
REMARK    2  A    between atoms: C2_2  and  C28_34
REMARK    3  A    between atoms: C3_3  and  C4_4
REMARK    4  A    between atoms: C4_4  and  C5_5
REMARK    5  A    between atoms: C5_5  and  C6_6
REMARK    6  A    between atoms: C6_6  and  C27_33
REMARK    7  A    between atoms: C7_7  and  C8_8
REMARK    8  A    between atoms: C8_8  and  C9_9
REMARK    9  A    between atoms: C10_10  and  O6_32
REMARK   10  A    between atoms: C14_14  and  O1_15
REMARK   11  A    between atoms: C19_22  and  O5_31
REMARK   12  A    between atoms: C24_27  and  C25_29
REMARK   13  A    between atoms: C24_27  and  C26_30
REMARK                            x       y       z     vdW  Elec       q    Type
REMARK                         _______ _______ _______ _____ _____    ______ ____
ROOT
ATOM     11  C   UNL     1      50.872  18.941  18.332  0.00  0.00    -0.163 A 
ATOM     12  C   UNL     1      51.219  20.274  18.520  0.00  0.00    +0.198 A 
ATOM     15  C   UNL     1      50.366  21.140  19.187  0.00  0.00    -0.028 A 
ATOM     16  C   UNL     1      49.150  20.685  19.676  0.00  0.00    +0.189 A 
ATOM     17  C   UNL     1      48.795  19.340  19.476  0.00  0.00    -0.265 A 
ATOM     18  C   UNL     1      47.488  18.876  19.977  0.00  0.00    +0.448 A 
ATOM     19  C   UNL     1      46.546  19.931  20.392  0.00  0.00    -0.195 A 
ATOM     20  C   UNL     1      47.030  21.240  20.548  0.00  0.00    +0.149 A 
ATOM     21  C   UNL     1      46.151  22.247  20.929  0.00  0.00    +0.017 A 
ATOM     22  C   UNL     1      44.813  21.968  21.159  0.00  0.00    +0.154 A 
ATOM     25  C   UNL     1      44.326  20.674  21.012  0.00  0.00    +0.077 A 
ATOM     26  O   UNL     1      43.018  20.380  21.233  0.00  0.00    -0.287 OA
ATOM     27  C   UNL     1      42.434  19.356  20.426  0.00  0.00    +0.138 C 
ATOM     28  C   UNL     1      41.073  18.970  21.006  0.00  0.00    +0.088 C 
ATOM     29  C   UNL     1      42.242  19.883  19.002  0.00  0.00    +0.035 C 
ATOM     30  C   UNL     1      43.324  18.141  20.391  0.00  0.00    -0.027 C 
ATOM     31  C   UNL     1      44.646  18.283  20.483  0.00  0.00    +0.051 C 
ATOM     32  C   UNL     1      45.192  19.647  20.628  0.00  0.00    -0.024 A 
ATOM     33  O   UNL     1      47.205  17.693  20.044  0.00  0.00    -0.431 OA
ATOM     34  O   UNL     1      48.330  21.530  20.334  0.00  0.00    -0.220 OA
ATOM     35  C   UNL     1      49.662  18.468  18.805  0.00  0.00    +0.221 A 
ENDROOT
BRANCH  12  13
ATOM     13  O   UNL     1      52.404  20.732  18.044  0.00  0.00    -0.482 OA
ATOM     14  H   UNL     1      52.527  20.598  17.095  0.00  0.00    +0.401 HD
ENDBRANCH  12  13
BRANCH  22  23
ATOM     23  O   UNL     1      43.970  22.967  21.530  0.00  0.00    -0.475 OA
ATOM     24  H   UNL     1      43.504  23.382  20.792  0.00  0.00    +0.398 HD
ENDBRANCH  22  23
BRANCH  35  36
ATOM     36  O   UNL     1      49.318  17.167  18.623  0.00  0.00    -0.472 OA
ATOM     37  H   UNL     1      50.064  16.554  18.663  0.00  0.00    +0.403 HD
ENDBRANCH  35  36
BRANCH  11  10
ATOM     10  C   UNL     1      51.813  18.012  17.608  0.00  0.00    +0.134 C 
BRANCH  10   9
ATOM      7  C   UNL     1      52.973  16.196  18.756  0.00  0.00    -0.124 C 
ATOM      8  C   UNL     1      54.095  15.665  19.611  0.00  0.00    +0.073 C 
ATOM      9  C   UNL     1      52.843  17.487  18.575  0.00  0.00    -0.046 C 
BRANCH   7   6
ATOM      6  C   UNL     1      52.002  15.243  18.108  0.00  0.00    +0.063 C 
BRANCH   6   5
ATOM      5  C   UNL     1      51.942  13.946  18.919  0.00  0.00    +0.052 C 
BRANCH   5   4
ATOM      1  C   UNL     1      53.617  11.823  19.720  0.00  0.00    +0.071 C 
ATOM      2  C   UNL     1      52.998  11.821  18.347  0.00  0.00    -0.131 C 
ATOM      3  C   UNL     1      53.338  10.726  17.368  0.00  0.00    +0.071 C 
ATOM      4  C   UNL     1      52.164  12.770  18.002  0.00  0.00    -0.062 C 
ENDBRANCH   5   4
ENDBRANCH   6   5
ENDBRANCH   7   6
ENDBRANCH  10   9
ENDBRANCH  11  10
TORSDOF 8
ENDMDL
MODEL 6
REMARK VINA RESULT:      -6.1      2.103      4.887
REMARK  Name = ZINC95485928
REMARK  13 active torsions:
REMARK  status: ('A' for Active; 'I' for Inactive)
REMARK    1  A    between atoms: C1_1  and  C2_2
REMARK    2  A    between atoms: C2_2  and  C28_34
REMARK    3  A    between atoms: C3_3  and  C4_4
REMARK    4  A    between atoms: C4_4  and  C5_5
REMARK    5  A    between atoms: C5_5  and  C6_6
REMARK    6  A    between atoms: C6_6  and  C27_33
REMARK    7  A    between atoms: C7_7  and  C8_8
REMARK    8  A    between atoms: C8_8  and  C9_9
REMARK    9  A    between atoms: C10_10  and  O6_32
REMARK   10  A    between atoms: C14_14  and  O1_15
REMARK   11  A    between atoms: C19_22  and  O5_31
REMARK   12  A    between atoms: C24_27  and  C25_29
REMARK   13  A    between atoms: C24_27  and  C26_30
REMARK                            x       y       z     vdW  Elec       q    Type
REMARK                         _______ _______ _______ _____ _____    ______ ____
ROOT
ATOM     11  C   UNL     1      49.605  16.274  18.299  0.00  0.00    -0.163 A 
ATOM     12  C   UNL     1      50.345  17.391  17.925  0.00  0.00    +0.198 A 
ATOM     15  C   UNL     1      49.842  18.669  18.110  0.00  0.00    -0.028 A 
ATOM     16  C   UNL     1      48.587  18.851  18.673  0.00  0.00    +0.189 A 
ATOM     17  C   UNL     1      47.833  17.723  19.041  0.00  0.00    -0.265 A 
ATOM     18  C   UNL     1      46.491  17.929  19.612  0.00  0.00    +0.448 A 
ATOM     19  C   UNL     1      45.938  19.290  19.484  0.00  0.00    -0.195 A 
ATOM     20  C   UNL     1      46.800  20.330  19.098  0.00  0.00    +0.149 A 
ATOM     21  C   UNL     1      46.291  21.617  18.964  0.00  0.00    +0.017 A 
ATOM     22  C   UNL     1      44.952  21.877  19.211  0.00  0.00    +0.154 A 
ATOM     25  C   UNL     1      44.093  20.854  19.598  0.00  0.00    +0.077 A 
ATOM     26  O   UNL     1      42.778  21.089  19.844  0.00  0.00    -0.287 OA
ATOM     27  C   UNL     1      41.857  20.049  19.514  0.00  0.00    +0.138 C 
ATOM     28  C   UNL     1      40.490  20.371  20.121  0.00  0.00    +0.088 C 
ATOM     29  C   UNL     1      41.721  19.957  17.993  0.00  0.00    +0.035 C 
ATOM     30  C   UNL     1      42.340  18.727  20.051  0.00  0.00    -0.027 C 
ATOM     31  C   UNL     1      43.648  18.489  20.152  0.00  0.00    +0.051 C 
ATOM     32  C   UNL     1      44.584  19.553  19.737  0.00  0.00    -0.024 A 
ATOM     33  O   UNL     1      45.875  17.031  20.158  0.00  0.00    -0.431 OA
ATOM     34  O   UNL     1      48.107  20.097  18.860  0.00  0.00    -0.220 OA
ATOM     35  C   UNL     1      48.348  16.433  18.856  0.00  0.00    +0.221 A 
ENDROOT
BRANCH  12  13
ATOM     13  O   UNL     1      51.573  17.226  17.371  0.00  0.00    -0.482 OA
ATOM     14  H   UNL     1      51.559  17.086  16.415  0.00  0.00    +0.401 HD
ENDBRANCH  12  13
BRANCH  22  23
ATOM     23  O   UNL     1      44.474  23.141  19.072  0.00  0.00    -0.475 OA
ATOM     24  H   UNL     1      44.067  23.316  18.213  0.00  0.00    +0.398 HD
ENDBRANCH  22  23
BRANCH  35  36
ATOM     36  O   UNL     1      47.621  15.347  19.222  0.00  0.00    -0.472 OA
ATOM     37  H   UNL     1      47.132  14.938  18.495  0.00  0.00    +0.403 HD
ENDBRANCH  35  36
BRANCH  11  10
ATOM     10  C   UNL     1      50.169  14.892  18.095  0.00  0.00    +0.134 C 
BRANCH  10   9
ATOM      7  C   UNL     1      49.663  13.170  16.440  0.00  0.00    -0.124 C 
ATOM      8  C   UNL     1      49.241  12.734  15.060  0.00  0.00    +0.073 C 
ATOM      9  C   UNL     1      49.887  14.437  16.686  0.00  0.00    -0.046 C 
BRANCH   7   6
ATOM      6  C   UNL     1      49.827  12.149  17.536  0.00  0.00    +0.063 C 
BRANCH   6   5
ATOM      5  C   UNL     1      48.587  11.254  17.589  0.00  0.00    +0.052 C 
BRANCH   5   4
ATOM      1  C   UNL     1      46.036  11.396  16.394  0.00  0.00    +0.071 C 
ATOM      2  C   UNL     1      46.304  12.113  17.692  0.00  0.00    -0.131 C 
ATOM      3  C   UNL     1      45.235  12.976  18.311  0.00  0.00    +0.071 C 
ATOM      4  C   UNL     1      47.467  11.987  18.282  0.00  0.00    -0.062 C 
ENDBRANCH   5   4
ENDBRANCH   6   5
ENDBRANCH   7   6
ENDBRANCH  10   9
ENDBRANCH  11  10
TORSDOF 8
ENDMDL
MODEL 7
REMARK VINA RESULT:      -6.0      2.104      8.217
REMARK  Name = ZINC95485928
REMARK  13 active torsions:
REMARK  status: ('A' for Active; 'I' for Inactive)
REMARK    1  A    between atoms: C1_1  and  C2_2
REMARK    2  A    between atoms: C2_2  and  C28_34
REMARK    3  A    between atoms: C3_3  and  C4_4
REMARK    4  A    between atoms: C4_4  and  C5_5
REMARK    5  A    between atoms: C5_5  and  C6_6
REMARK    6  A    between atoms: C6_6  and  C27_33
REMARK    7  A    between atoms: C7_7  and  C8_8
REMARK    8  A    between atoms: C8_8  and  C9_9
REMARK    9  A    between atoms: C10_10  and  O6_32
REMARK   10  A    between atoms: C14_14  and  O1_15
REMARK   11  A    between atoms: C19_22  and  O5_31
REMARK   12  A    between atoms: C24_27  and  C25_29
REMARK   13  A    between atoms: C24_27  and  C26_30
REMARK                            x       y       z     vdW  Elec       q    Type
REMARK                         _______ _______ _______ _____ _____    ______ ____
ROOT
ATOM     11  C   UNL     1      45.782  19.930  18.834  0.00  0.00    -0.163 A 
ATOM     12  C   UNL     1      46.645  20.856  19.409  0.00  0.00    +0.198 A 
ATOM     15  C   UNL     1      48.017  20.658  19.383  0.00  0.00    -0.028 A 
ATOM     16  C   UNL     1      48.548  19.527  18.781  0.00  0.00    +0.189 A 
ATOM     17  C   UNL     1      47.675  18.585  18.208  0.00  0.00    -0.265 A 
ATOM     18  C   UNL     1      48.250  17.374  17.595  0.00  0.00    +0.448 A 
ATOM     19  C   UNL     1      49.672  17.117  17.888  0.00  0.00    -0.195 A 
ATOM     20  C   UNL     1      50.433  18.145  18.470  0.00  0.00    +0.149 A 
ATOM     21  C   UNL     1      51.773  17.914  18.761  0.00  0.00    +0.017 A 
ATOM     22  C   UNL     1      52.358  16.690  18.476  0.00  0.00    +0.154 A 
ATOM     25  C   UNL     1      51.613  15.670  17.895  0.00  0.00    +0.077 A 
ATOM     26  O   UNL     1      52.168  14.463  17.609  0.00  0.00    -0.287 OA
ATOM     27  C   UNL     1      51.328  13.314  17.730  0.00  0.00    +0.138 C 
ATOM     28  C   UNL     1      52.025  12.108  17.097  0.00  0.00    +0.088 C 
ATOM     29  C   UNL     1      51.073  13.026  19.210  0.00  0.00    +0.035 C 
ATOM     30  C   UNL     1      50.012  13.548  17.035  0.00  0.00    -0.027 C 
ATOM     31  C   UNL     1      49.501  14.778  16.977  0.00  0.00    +0.051 C 
ATOM     32  C   UNL     1      50.264  15.880  17.597  0.00  0.00    -0.024 A 
ATOM     33  O   UNL     1      47.592  16.631  16.890  0.00  0.00    -0.431 OA
ATOM     34  O   UNL     1      49.883  19.345  18.749  0.00  0.00    -0.220 OA
ATOM     35  C   UNL     1      46.290  18.792  18.234  0.00  0.00    +0.221 A 
ENDROOT
BRANCH  12  13
ATOM     13  O   UNL     1      46.138  21.966  20.004  0.00  0.00    -0.482 OA
ATOM     14  H   UNL     1      46.809  22.562  20.364  0.00  0.00    +0.401 HD
ENDBRANCH  12  13
BRANCH  22  23
ATOM     23  O   UNL     1      53.668  16.484  18.769  0.00  0.00    -0.475 OA
ATOM     24  H   UNL     1      53.817  16.028  19.608  0.00  0.00    +0.398 HD
ENDBRANCH  22  23
BRANCH  35  36
ATOM     36  O   UNL     1      45.452  17.885  17.671  0.00  0.00    -0.472 OA
ATOM     37  H   UNL     1      45.072  18.170  16.829  0.00  0.00    +0.403 HD
ENDBRANCH  35  36
BRANCH  11  10
ATOM     10  C   UNL     1      44.294  20.164  18.867  0.00  0.00    +0.134 C 
BRANCH  10   9
ATOM      7  C   UNL     1      43.554  19.336  21.042  0.00  0.00    -0.124 C 
ATOM      8  C   UNL     1      43.249  19.529  22.505  0.00  0.00    +0.073 C 
ATOM      9  C   UNL     1      43.849  20.369  20.293  0.00  0.00    -0.046 C 
BRANCH   7   6
ATOM      6  C   UNL     1      43.521  17.955  20.441  0.00  0.00    +0.063 C 
BRANCH   6   5
ATOM      5  C   UNL     1      44.073  16.945  21.450  0.00  0.00    +0.052 C 
BRANCH   5   4
ATOM      1  C   UNL     1      45.438  15.037  19.884  0.00  0.00    +0.071 C 
ATOM      2  C   UNL     1      46.212  16.019  20.724  0.00  0.00    -0.131 C 
ATOM      3  C   UNL     1      47.715  15.932  20.794  0.00  0.00    +0.071 C 
ATOM      4  C   UNL     1      45.579  16.950  21.394  0.00  0.00    -0.062 C 
ENDBRANCH   5   4
ENDBRANCH   6   5
ENDBRANCH   7   6
ENDBRANCH  10   9
ENDBRANCH  11  10
TORSDOF 8
ENDMDL
MODEL 8
REMARK VINA RESULT:      -6.0      2.414      3.469
REMARK  Name = ZINC95485928
REMARK  13 active torsions:
REMARK  status: ('A' for Active; 'I' for Inactive)
REMARK    1  A    between atoms: C1_1  and  C2_2
REMARK    2  A    between atoms: C2_2  and  C28_34
REMARK    3  A    between atoms: C3_3  and  C4_4
REMARK    4  A    between atoms: C4_4  and  C5_5
REMARK    5  A    between atoms: C5_5  and  C6_6
REMARK    6  A    between atoms: C6_6  and  C27_33
REMARK    7  A    between atoms: C7_7  and  C8_8
REMARK    8  A    between atoms: C8_8  and  C9_9
REMARK    9  A    between atoms: C10_10  and  O6_32
REMARK   10  A    between atoms: C14_14  and  O1_15
REMARK   11  A    between atoms: C19_22  and  O5_31
REMARK   12  A    between atoms: C24_27  and  C25_29
REMARK   13  A    between atoms: C24_27  and  C26_30
REMARK                            x       y       z     vdW  Elec       q    Type
REMARK                         _______ _______ _______ _____ _____    ______ ____
ROOT
ATOM     11  C   UNL     1      48.459  13.761  18.517  0.00  0.00    -0.163 A 
ATOM     12  C   UNL     1      47.935  12.991  19.550  0.00  0.00    +0.198 A 
ATOM     15  C   UNL     1      46.830  13.424  20.266  0.00  0.00    -0.028 A 
ATOM     16  C   UNL     1      46.231  14.637  19.960  0.00  0.00    +0.189 A 
ATOM     17  C   UNL     1      46.767  15.421  18.923  0.00  0.00    -0.265 A 
ATOM     18  C   UNL     1      46.138  16.720  18.627  0.00  0.00    +0.448 A 
ATOM     19  C   UNL     1      45.178  17.216  19.630  0.00  0.00    -0.195 A 
ATOM     20  C   UNL     1      44.726  16.328  20.621  0.00  0.00    +0.149 A 
ATOM     21  C   UNL     1      43.828  16.783  21.579  0.00  0.00    +0.017 A 
ATOM     22  C   UNL     1      43.376  18.094  21.559  0.00  0.00    +0.154 A 
ATOM     25  C   UNL     1      43.815  18.977  20.579  0.00  0.00    +0.077 A 
ATOM     26  O   UNL     1      43.384  20.265  20.542  0.00  0.00    -0.287 OA
ATOM     27  C   UNL     1      44.310  21.250  20.081  0.00  0.00    +0.138 C 
ATOM     28  C   UNL     1      43.570  22.566  19.836  0.00  0.00    +0.088 C 
ATOM     29  C   UNL     1      45.385  21.471  21.147  0.00  0.00    +0.035 C 
ATOM     30  C   UNL     1      44.963  20.800  18.801  0.00  0.00    -0.027 C 
ATOM     31  C   UNL     1      45.164  19.501  18.578  0.00  0.00    +0.051 C 
ATOM     32  C   UNL     1      44.718  18.541  19.607  0.00  0.00    -0.024 A 
ATOM     33  O   UNL     1      46.395  17.347  17.614  0.00  0.00    -0.431 OA
ATOM     34  O   UNL     1      45.150  15.048  20.653  0.00  0.00    -0.220 OA
ATOM     35  C   UNL     1      47.882  14.977  18.200  0.00  0.00    +0.221 A 
ENDROOT
BRANCH  12  13
ATOM     13  O   UNL     1      48.514  11.803  19.860  0.00  0.00    -0.482 OA
ATOM     14  H   UNL     1      47.886  11.076  19.970  0.00  0.00    +0.401 HD
ENDBRANCH  12  13
BRANCH  22  23
ATOM     23  O   UNL     1      42.499  18.519  22.505  0.00  0.00    -0.475 OA
ATOM     24  H   UNL     1      42.858  19.193  23.099  0.00  0.00    +0.398 HD
ENDBRANCH  22  23
BRANCH  35  36
ATOM     36  O   UNL     1      48.390  15.733  17.194  0.00  0.00    -0.472 OA
ATOM     37  H   UNL     1      48.102  16.656  17.212  0.00  0.00    +0.403 HD
ENDBRANCH  35  36
BRANCH  11  10
ATOM     10  C   UNL     1      49.659  13.273  17.747  0.00  0.00    +0.134 C 
BRANCH  10   9
ATOM      7  C   UNL     1      50.073  11.931  15.749  0.00  0.00    -0.124 C 
ATOM      8  C   UNL     1      49.604  11.074  14.601  0.00  0.00    +0.073 C 
ATOM      9  C   UNL     1      49.199  12.534  16.516  0.00  0.00    -0.046 C 
BRANCH   7   6
ATOM      6  C   UNL     1      51.548  12.092  16.016  0.00  0.00    +0.063 C 
BRANCH   6   5
ATOM      5  C   UNL     1      52.138  10.749  16.450  0.00  0.00    +0.052 C 
BRANCH   5   4
ATOM      1  C   UNL     1      51.843  10.277  19.215  0.00  0.00    +0.071 C 
ATOM      2  C   UNL     1      53.134  10.836  18.677  0.00  0.00    -0.131 C 
ATOM      3  C   UNL     1      54.241  11.222  19.624  0.00  0.00    +0.071 C 
ATOM      4  C   UNL     1      53.296  10.987  17.386  0.00  0.00    -0.062 C 
ENDBRANCH   5   4
ENDBRANCH   6   5
ENDBRANCH   7   6
ENDBRANCH  10   9
ENDBRANCH  11  10
TORSDOF 8
ENDMDL
MODEL 9
REMARK VINA RESULT:      -5.7      2.525      8.500
REMARK  Name = ZINC95485928
REMARK  13 active torsions:
REMARK  status: ('A' for Active; 'I' for Inactive)
REMARK    1  A    between atoms: C1_1  and  C2_2
REMARK    2  A    between atoms: C2_2  and  C28_34
REMARK    3  A    between atoms: C3_3  and  C4_4
REMARK    4  A    between atoms: C4_4  and  C5_5
REMARK    5  A    between atoms: C5_5  and  C6_6
REMARK    6  A    between atoms: C6_6  and  C27_33
REMARK    7  A    between atoms: C7_7  and  C8_8
REMARK    8  A    between atoms: C8_8  and  C9_9
REMARK    9  A    between atoms: C10_10  and  O6_32
REMARK   10  A    between atoms: C14_14  and  O1_15
REMARK   11  A    between atoms: C19_22  and  O5_31
REMARK   12  A    between atoms: C24_27  and  C25_29
REMARK   13  A    between atoms: C24_27  and  C26_30
REMARK                            x       y       z     vdW  Elec       q    Type
REMARK                         _______ _______ _______ _____ _____    ______ ____
ROOT
ATOM     11  C   UNL     1      50.277  19.465  18.605  0.00  0.00    -0.163 A 
ATOM     12  C   UNL     1      51.643  19.231  18.488  0.00  0.00    +0.198 A 
ATOM     15  C   UNL     1      52.114  18.060  17.917  0.00  0.00    -0.028 A 
ATOM     16  C   UNL     1      51.225  17.101  17.454  0.00  0.00    +0.189 A 
ATOM     17  C   UNL     1      49.844  17.332  17.582  0.00  0.00    -0.265 A 
ATOM     18  C   UNL     1      48.911  16.294  17.110  0.00  0.00    +0.448 A 
ATOM     19  C   UNL     1      49.507  14.980  16.807  0.00  0.00    -0.195 A 
ATOM     20  C   UNL     1      50.906  14.884  16.715  0.00  0.00    +0.149 A 
ATOM     21  C   UNL     1      51.484  13.650  16.439  0.00  0.00    +0.017 A 
ATOM     22  C   UNL     1      50.694  12.526  16.251  0.00  0.00    +0.154 A 
ATOM     25  C   UNL     1      49.309  12.614  16.335  0.00  0.00    +0.077 A 
ATOM     26  O   UNL     1      48.519  11.523  16.154  0.00  0.00    -0.287 OA
ATOM     27  C   UNL     1      47.313  11.457  16.918  0.00  0.00    +0.138 C 
ATOM     28  C   UNL     1      46.431  10.332  16.375  0.00  0.00    +0.088 C 
ATOM     29  C   UNL     1      47.657  11.165  18.380  0.00  0.00    +0.035 C 
ATOM     30  C   UNL     1      46.564  12.762  16.834  0.00  0.00    -0.027 C 
ATOM     31  C   UNL     1      47.235  13.905  16.693  0.00  0.00    +0.051 C 
ATOM     32  C   UNL     1      48.708  13.844  16.613  0.00  0.00    -0.024 A 
ATOM     33  O   UNL     1      47.718  16.507  16.979  0.00  0.00    -0.431 OA
ATOM     34  O   UNL     1      51.690  15.968  16.890  0.00  0.00    -0.220 OA
ATOM     35  C   UNL     1      49.373  18.520  18.156  0.00  0.00    +0.221 A 
ENDROOT
BRANCH  12  13
ATOM     13  O   UNL     1      52.523  20.160  18.940  0.00  0.00    -0.482 OA
ATOM     14  H   UNL     1      52.988  20.636  18.239  0.00  0.00    +0.401 HD
ENDBRANCH  12  13
BRANCH  22  23
ATOM     23  O   UNL     1      51.279  11.329  15.983  0.00  0.00    -0.475 OA
ATOM     24  H   UNL     1      51.661  10.897  16.758  0.00  0.00    +0.398 HD
ENDBRANCH  22  23
BRANCH  35  36
ATOM     36  O   UNL     1      48.039  18.743  18.268  0.00  0.00    -0.472 OA
ATOM     37  H   UNL     1      47.645  19.172  17.496  0.00  0.00    +0.403 HD
ENDBRANCH  35  36
BRANCH  11  10
ATOM     10  C   UNL     1      49.782  20.747  19.224  0.00  0.00    +0.134 C 
BRANCH  10   9
ATOM      7  C   UNL     1      48.221  20.779  21.102  0.00  0.00    -0.124 C 
ATOM      8  C   UNL     1      47.820  20.403  22.505  0.00  0.00    +0.073 C 
ATOM      9  C   UNL     1      49.425  20.502  20.668  0.00  0.00    -0.046 C 
BRANCH   7   6
ATOM      6  C   UNL     1      47.236  21.473  20.196  0.00  0.00    +0.063 C 
BRANCH   6   5
ATOM      5  C   UNL     1      46.072  22.016  21.029  0.00  0.00    +0.052 C 
BRANCH   5   4
ATOM      1  C   UNL     1      44.212  19.910  21.272  0.00  0.00    +0.071 C 
ATOM      2  C   UNL     1      43.989  21.002  20.259  0.00  0.00    -0.131 C 
ATOM      3  C   UNL     1      42.816  20.928  19.316  0.00  0.00    +0.071 C 
ATOM      4  C   UNL     1      44.815  22.017  20.196  0.00  0.00    -0.062 C 
ENDBRANCH   5   4
ENDBRANCH   6   5
ENDBRANCH   7   6
ENDBRANCH  10   9
ENDBRANCH  11  10
TORSDOF 8
ENDMDL
