MODEL 1
REMARK VINA RESULT:      -6.7      0.000      0.000
REMARK  Name = ZINC14614051
REMARK  11 active torsions:
REMARK  status: ('A' for Active; 'I' for Inactive)
REMARK    1  A    between atoms: C1_1  and  C2_2
REMARK    2  A    between atoms: C2_2  and  C26_32
REMARK    3  A    between atoms: C3_3  and  C4_4
REMARK    4  A    between atoms: C4_4  and  C5_5
REMARK    5  A    between atoms: C5_5  and  C6_6
REMARK    6  A    between atoms: C6_6  and  C25_31
REMARK    7  A    between atoms: C16_17  and  C18_20
REMARK    8  A    between atoms: C21_23  and  O4_28
REMARK    9  A    between atoms: C22_24  and  O3_27
REMARK   10  A    between atoms: C23_25  and  O2_26
REMARK   11  A    between atoms: O4_28  and  C24_29
REMARK                            x       y       z     vdW  Elec       q    Type
REMARK                         _______ _______ _______ _____ _____    ______ ____
ROOT
ATOM      7  C   UNL     1      51.529  16.245  19.889  0.00  0.00    +0.154 C 
ATOM      8  C   UNL     1      52.651  15.208  19.971  0.00  0.00    +0.080 C 
ATOM      9  C   UNL     1      50.666  16.142  21.118  0.00  0.00    -0.067 C 
ATOM     10  C   UNL     1      49.379  16.481  21.061  0.00  0.00    +0.060 C 
ATOM     11  C   UNL     1      48.841  16.940  19.763  0.00  0.00    -0.166 A 
ATOM     12  C   UNL     1      49.577  16.673  18.603  0.00  0.00    +0.169 A 
ATOM     13  C   UNL     1      49.096  17.091  17.376  0.00  0.00    -0.040 A 
ATOM     14  C   UNL     1      47.891  17.766  17.304  0.00  0.00    +0.086 A 
ATOM     15  C   UNL     1      47.154  18.033  18.449  0.00  0.00    -0.191 A 
ATOM     16  C   UNL     1      45.845  18.768  18.312  0.00  0.00    +0.098 C 
ATOM     17  C   UNL     1      45.427  19.335  19.670  0.00  0.00    +0.024 C 
ATOM     30  C   UNL     1      45.556  18.221  20.717  0.00  0.00    +0.252 C 
ATOM     31  O   UNL     1      46.935  17.868  20.829  0.00  0.00    -0.305 OA
ATOM     32  C   UNL     1      47.623  17.623  19.685  0.00  0.00    +0.180 A 
ATOM     33  O   UNL     1      50.756  16.008  18.711  0.00  0.00    -0.299 OA
ENDROOT
BRANCH  17  18
ATOM     18  C   UNL     1      43.997  19.808  19.604  0.00  0.00    -0.128 A 
ATOM     19  C   UNL     1      42.967  18.936  19.904  0.00  0.00    +0.068 A 
ATOM     20  C   UNL     1      41.655  19.366  19.851  0.00  0.00    -0.062 A 
ATOM     21  C   UNL     1      41.366  20.673  19.485  0.00  0.00    +0.120 A 
ATOM     24  C   UNL     1      42.398  21.550  19.178  0.00  0.00    +0.050 A 
ATOM     27  C   UNL     1      43.717  21.115  19.238  0.00  0.00    +0.130 A 
BRANCH  21  22
ATOM     22  O   UNL     1      40.074  21.093  19.428  0.00  0.00    -0.305 OA
ATOM     23  C   UNL     1      39.412  20.985  18.167  0.00  0.00    +0.244 C 
ENDBRANCH  21  22
BRANCH  24  25
ATOM     25  O   UNL     1      42.119  22.832  18.818  0.00  0.00    -0.473 OA
ATOM     26  H   UNL     1      42.412  23.064  17.926  0.00  0.00    +0.384 HD
ENDBRANCH  24  25
BRANCH  27  28
ATOM     28  O   UNL     1      44.730  21.971  18.938  0.00  0.00    -0.479 OA
ATOM     29  H   UNL     1      45.004  22.532  19.677  0.00  0.00    +0.391 HD
ENDBRANCH  27  28
ENDBRANCH  17  18
BRANCH   7   6
ATOM      6  C   UNL     1      52.141  17.646  19.818  0.00  0.00    +0.014 C 
BRANCH   6   5
ATOM      5  C   UNL     1      52.574  17.940  18.379  0.00  0.00    +0.061 C 
BRANCH   5   4
ATOM      1  C   UNL     1      51.925  18.700  15.741  0.00  0.00    +0.072 C 
ATOM      2  C   UNL     1      51.931  19.726  16.844  0.00  0.00    -0.133 C 
ATOM      3  C   UNL     1      51.521  21.147  16.552  0.00  0.00    +0.071 C 
ATOM      4  C   UNL     1      52.292  19.385  18.057  0.00  0.00    -0.060 C 
ENDBRANCH   5   4
ENDBRANCH   6   5
ENDBRANCH   7   6
TORSDOF 7
ENDMDL
MODEL 2
REMARK VINA RESULT:      -6.7      3.845      9.388
REMARK  Name = ZINC14614051
REMARK  11 active torsions:
REMARK  status: ('A' for Active; 'I' for Inactive)
REMARK    1  A    between atoms: C1_1  and  C2_2
REMARK    2  A    between atoms: C2_2  and  C26_32
REMARK    3  A    between atoms: C3_3  and  C4_4
REMARK    4  A    between atoms: C4_4  and  C5_5
REMARK    5  A    between atoms: C5_5  and  C6_6
REMARK    6  A    between atoms: C6_6  and  C25_31
REMARK    7  A    between atoms: C16_17  and  C18_20
REMARK    8  A    between atoms: C21_23  and  O4_28
REMARK    9  A    between atoms: C22_24  and  O3_27
REMARK   10  A    between atoms: C23_25  and  O2_26
REMARK   11  A    between atoms: O4_28  and  C24_29
REMARK                            x       y       z     vdW  Elec       q    Type
REMARK                         _______ _______ _______ _____ _____    ______ ____
ROOT
ATOM      7  C   UNL     1      43.282  18.676  21.355  0.00  0.00    +0.154 C 
ATOM      8  C   UNL     1      42.891  19.606  22.505  0.00  0.00    +0.080 C 
ATOM      9  C   UNL     1      43.629  17.320  21.909  0.00  0.00    -0.067 C 
ATOM     10  C   UNL     1      44.500  16.541  21.271  0.00  0.00    +0.060 C 
ATOM     11  C   UNL     1      45.111  17.058  20.029  0.00  0.00    -0.166 A 
ATOM     12  C   UNL     1      45.032  18.431  19.766  0.00  0.00    +0.169 A 
ATOM     13  C   UNL     1      45.595  18.940  18.612  0.00  0.00    -0.040 A 
ATOM     14  C   UNL     1      46.233  18.092  17.726  0.00  0.00    +0.086 A 
ATOM     15  C   UNL     1      46.318  16.731  17.979  0.00  0.00    -0.191 A 
ATOM     16  C   UNL     1      47.031  15.853  16.981  0.00  0.00    +0.098 C 
ATOM     17  C   UNL     1      46.640  14.391  17.209  0.00  0.00    +0.024 C 
ATOM     30  C   UNL     1      46.771  14.085  18.707  0.00  0.00    +0.252 C 
ATOM     31  O   UNL     1      45.815  14.878  19.412  0.00  0.00    -0.305 OA
ATOM     32  C   UNL     1      45.758  16.204  19.129  0.00  0.00    +0.180 A 
ATOM     33  O   UNL     1      44.397  19.234  20.658  0.00  0.00    -0.299 OA
ENDROOT
BRANCH  17  18
ATOM     18  C   UNL     1      47.560  13.491  16.424  0.00  0.00    -0.128 A 
ATOM     19  C   UNL     1      48.873  13.866  16.208  0.00  0.00    +0.068 A 
ATOM     20  C   UNL     1      49.722  13.041  15.494  0.00  0.00    -0.062 A 
ATOM     21  C   UNL     1      49.256  11.840  14.981  0.00  0.00    +0.120 A 
ATOM     24  C   UNL     1      47.935  11.462  15.191  0.00  0.00    +0.050 A 
ATOM     27  C   UNL     1      47.086  12.292  15.915  0.00  0.00    +0.130 A 
BRANCH  21  22
ATOM     22  O   UNL     1      50.091  11.033  14.274  0.00  0.00    -0.305 OA
ATOM     23  C   UNL     1      51.065  11.671  13.447  0.00  0.00    +0.244 C 
ENDBRANCH  21  22
BRANCH  24  25
ATOM     25  O   UNL     1      47.474  10.285  14.689  0.00  0.00    -0.473 OA
ATOM     26  H   UNL     1      48.092   9.547  14.783  0.00  0.00    +0.384 HD
ENDBRANCH  24  25
BRANCH  27  28
ATOM     28  O   UNL     1      45.792  11.926  16.123  0.00  0.00    -0.479 OA
ATOM     29  H   UNL     1      45.304  11.728  15.312  0.00  0.00    +0.391 HD
ENDBRANCH  27  28
ENDBRANCH  17  18
BRANCH   7   6
ATOM      6  C   UNL     1      42.100  18.540  20.392  0.00  0.00    +0.014 C 
BRANCH   6   5
ATOM      5  C   UNL     1      41.995  19.804  19.535  0.00  0.00    +0.061 C 
BRANCH   5   4
ATOM      1  C   UNL     1      41.262  22.318  18.487  0.00  0.00    +0.072 C 
ATOM      2  C   UNL     1      40.208  21.276  18.759  0.00  0.00    -0.133 C 
ATOM      3  C   UNL     1      38.769  21.551  18.406  0.00  0.00    +0.071 C 
ATOM      4  C   UNL     1      40.542  20.132  19.304  0.00  0.00    -0.060 C 
ENDBRANCH   5   4
ENDBRANCH   6   5
ENDBRANCH   7   6
TORSDOF 7
ENDMDL
MODEL 3
REMARK VINA RESULT:      -6.3      2.136      2.886
REMARK  Name = ZINC14614051
REMARK  11 active torsions:
REMARK  status: ('A' for Active; 'I' for Inactive)
REMARK    1  A    between atoms: C1_1  and  C2_2
REMARK    2  A    between atoms: C2_2  and  C26_32
REMARK    3  A    between atoms: C3_3  and  C4_4
REMARK    4  A    between atoms: C4_4  and  C5_5
REMARK    5  A    between atoms: C5_5  and  C6_6
REMARK    6  A    between atoms: C6_6  and  C25_31
REMARK    7  A    between atoms: C16_17  and  C18_20
REMARK    8  A    between atoms: C21_23  and  O4_28
REMARK    9  A    between atoms: C22_24  and  O3_27
REMARK   10  A    between atoms: C23_25  and  O2_26
REMARK   11  A    between atoms: O4_28  and  C24_29
REMARK                            x       y       z     vdW  Elec       q    Type
REMARK                         _______ _______ _______ _____ _____    ______ ____
ROOT
ATOM      7  C   UNL     1      51.741  17.392  19.317  0.00  0.00    +0.154 C 
ATOM      8  C   UNL     1      53.096  16.929  18.779  0.00  0.00    +0.080 C 
ATOM      9  C   UNL     1      50.711  16.326  19.051  0.00  0.00    -0.067 C 
ATOM     10  C   UNL     1      49.433  16.660  18.887  0.00  0.00    +0.060 C 
ATOM     11  C   UNL     1      49.075  18.092  18.961  0.00  0.00    -0.166 A 
ATOM     12  C   UNL     1      50.097  19.042  18.848  0.00  0.00    +0.169 A 
ATOM     13  C   UNL     1      49.790  20.388  18.914  0.00  0.00    -0.040 A 
ATOM     14  C   UNL     1      48.477  20.786  19.089  0.00  0.00    +0.086 A 
ATOM     15  C   UNL     1      47.458  19.851  19.200  0.00  0.00    -0.191 A 
ATOM     16  C   UNL     1      46.044  20.340  19.385  0.00  0.00    +0.098 C 
ATOM     17  C   UNL     1      45.169  19.202  19.915  0.00  0.00    +0.024 C 
ATOM     30  C   UNL     1      45.426  17.957  19.055  0.00  0.00    +0.252 C 
ATOM     31  O   UNL     1      46.782  17.553  19.247  0.00  0.00    -0.305 OA
ATOM     32  C   UNL     1      47.749  18.499  19.138  0.00  0.00    +0.180 A 
ATOM     33  O   UNL     1      51.375  18.615  18.677  0.00  0.00    -0.299 OA
ENDROOT
BRANCH  17  18
ATOM     18  C   UNL     1      43.716  19.594  19.821  0.00  0.00    -0.128 A 
ATOM     19  C   UNL     1      43.284  20.402  18.787  0.00  0.00    +0.068 A 
ATOM     20  C   UNL     1      41.952  20.759  18.693  0.00  0.00    -0.062 A 
ATOM     21  C   UNL     1      41.045  20.315  19.644  0.00  0.00    +0.120 A 
ATOM     24  C   UNL     1      41.476  19.506  20.688  0.00  0.00    +0.050 A 
ATOM     27  C   UNL     1      42.816  19.145  20.775  0.00  0.00    +0.130 A 
BRANCH  21  22
ATOM     22  O   UNL     1      39.736  20.671  19.554  0.00  0.00    -0.305 OA
ATOM     23  C   UNL     1      39.362  21.497  18.450  0.00  0.00    +0.244 C 
ENDBRANCH  21  22
BRANCH  24  25
ATOM     25  O   UNL     1      40.590  19.069  21.623  0.00  0.00    -0.473 OA
ATOM     26  H   UNL     1      39.888  18.507  21.268  0.00  0.00    +0.384 HD
ENDBRANCH  24  25
BRANCH  27  28
ATOM     28  O   UNL     1      43.243  18.354  21.796  0.00  0.00    -0.479 OA
ATOM     29  H   UNL     1      43.731  18.827  22.484  0.00  0.00    +0.391 HD
ENDBRANCH  27  28
ENDBRANCH  17  18
BRANCH   7   6
ATOM      6  C   UNL     1      51.849  17.623  20.826  0.00  0.00    +0.014 C 
BRANCH   6   5
ATOM      5  C   UNL     1      52.795  18.796  21.094  0.00  0.00    +0.061 C 
BRANCH   5   4
ATOM      1  C   UNL     1      52.740  21.534  20.418  0.00  0.00    +0.072 C 
ATOM      2  C   UNL     1      52.039  21.048  21.660  0.00  0.00    -0.133 C 
ATOM      3  C   UNL     1      51.249  22.014  22.505  0.00  0.00    +0.071 C 
ATOM      4  C   UNL     1      52.118  19.787  22.006  0.00  0.00    -0.060 C 
ENDBRANCH   5   4
ENDBRANCH   6   5
ENDBRANCH   7   6
TORSDOF 7
ENDMDL
MODEL 4
REMARK VINA RESULT:      -6.1      3.260      9.127
REMARK  Name = ZINC14614051
REMARK  11 active torsions:
REMARK  status: ('A' for Active; 'I' for Inactive)
REMARK    1  A    between atoms: C1_1  and  C2_2
REMARK    2  A    between atoms: C2_2  and  C26_32
REMARK    3  A    between atoms: C3_3  and  C4_4
REMARK    4  A    between atoms: C4_4  and  C5_5
REMARK    5  A    between atoms: C5_5  and  C6_6
REMARK    6  A    between atoms: C6_6  and  C25_31
REMARK    7  A    between atoms: C16_17  and  C18_20
REMARK    8  A    between atoms: C21_23  and  O4_28
REMARK    9  A    between atoms: C22_24  and  O3_27
REMARK   10  A    between atoms: C23_25  and  O2_26
REMARK   11  A    between atoms: O4_28  and  C24_29
REMARK                            x       y       z     vdW  Elec       q    Type
REMARK                         _______ _______ _______ _____ _____    ______ ____
ROOT
ATOM      7  C   UNL     1      45.189  20.203  20.635  0.00  0.00    +0.154 C 
ATOM      8  C   UNL     1      44.671  21.124  21.742  0.00  0.00    +0.080 C 
ATOM      9  C   UNL     1      44.767  18.788  20.929  0.00  0.00    -0.067 C 
ATOM     10  C   UNL     1      45.507  17.768  20.498  0.00  0.00    +0.060 C 
ATOM     11  C   UNL     1      46.742  18.076  19.748  0.00  0.00    -0.166 A 
ATOM     12  C   UNL     1      47.262  19.374  19.820  0.00  0.00    +0.169 A 
ATOM     13  C   UNL     1      48.416  19.688  19.128  0.00  0.00    -0.040 A 
ATOM     14  C   UNL     1      49.049  18.720  18.371  0.00  0.00    +0.086 A 
ATOM     15  C   UNL     1      48.542  17.431  18.295  0.00  0.00    -0.191 A 
ATOM     16  C   UNL     1      49.276  16.412  17.460  0.00  0.00    +0.098 C 
ATOM     17  C   UNL     1      48.352  15.231  17.156  0.00  0.00    +0.024 C 
ATOM     30  C   UNL     1      47.690  14.789  18.468  0.00  0.00    +0.252 C 
ATOM     31  O   UNL     1      46.856  15.852  18.930  0.00  0.00    -0.305 OA
ATOM     32  C   UNL     1      47.386  17.100  18.981  0.00  0.00    +0.180 A 
ATOM     33  O   UNL     1      46.613  20.300  20.573  0.00  0.00    -0.299 OA
ENDROOT
BRANCH  17  18
ATOM     18  C   UNL     1      49.156  14.092  16.583  0.00  0.00    -0.128 A 
ATOM     19  C   UNL     1      50.412  13.810  17.088  0.00  0.00    +0.068 A 
ATOM     20  C   UNL     1      51.150  12.763  16.571  0.00  0.00    -0.062 A 
ATOM     21  C   UNL     1      50.638  11.997  15.533  0.00  0.00    +0.120 A 
ATOM     24  C   UNL     1      49.379  12.281  15.019  0.00  0.00    +0.050 A 
ATOM     27  C   UNL     1      48.637  13.332  15.547  0.00  0.00    +0.130 A 
BRANCH  21  22
ATOM     22  O   UNL     1      51.368  10.971  15.021  0.00  0.00    -0.305 OA
ATOM     23  C   UNL     1      52.781  11.012  15.229  0.00  0.00    +0.244 C 
ENDBRANCH  21  22
BRANCH  24  25
ATOM     25  O   UNL     1      48.874  11.533  14.001  0.00  0.00    -0.473 OA
ATOM     26  H   UNL     1      47.913  11.590  13.910  0.00  0.00    +0.384 HD
ENDBRANCH  24  25
BRANCH  27  28
ATOM     28  O   UNL     1      47.404  13.612  15.046  0.00  0.00    -0.479 OA
ATOM     29  H   UNL     1      47.226  14.558  14.945  0.00  0.00    +0.391 HD
ENDBRANCH  27  28
ENDBRANCH  17  18
BRANCH   7   6
ATOM      6  C   UNL     1      44.594  20.640  19.295  0.00  0.00    +0.014 C 
BRANCH   6   5
ATOM      5  C   UNL     1      43.468  19.681  18.902  0.00  0.00    +0.061 C 
BRANCH   5   4
ATOM      1  C   UNL     1      41.101  19.371  20.404  0.00  0.00    +0.072 C 
ATOM      2  C   UNL     1      41.158  20.374  19.281  0.00  0.00    -0.133 C 
ATOM      3  C   UNL     1      39.972  21.263  19.004  0.00  0.00    +0.071 C 
ATOM      4  C   UNL     1      42.237  20.473  18.545  0.00  0.00    -0.060 C 
ENDBRANCH   5   4
ENDBRANCH   6   5
ENDBRANCH   7   6
TORSDOF 7
ENDMDL
MODEL 5
REMARK VINA RESULT:      -6.0      3.358      8.639
REMARK  Name = ZINC14614051
REMARK  11 active torsions:
REMARK  status: ('A' for Active; 'I' for Inactive)
REMARK    1  A    between atoms: C1_1  and  C2_2
REMARK    2  A    between atoms: C2_2  and  C26_32
REMARK    3  A    between atoms: C3_3  and  C4_4
REMARK    4  A    between atoms: C4_4  and  C5_5
REMARK    5  A    between atoms: C5_5  and  C6_6
REMARK    6  A    between atoms: C6_6  and  C25_31
REMARK    7  A    between atoms: C16_17  and  C18_20
REMARK    8  A    between atoms: C21_23  and  O4_28
REMARK    9  A    between atoms: C22_24  and  O3_27
REMARK   10  A    between atoms: C23_25  and  O2_26
REMARK   11  A    between atoms: O4_28  and  C24_29
REMARK                            x       y       z     vdW  Elec       q    Type
REMARK                         _______ _______ _______ _____ _____    ______ ____
ROOT
ATOM      7  C   UNL     1      44.784  21.554  20.832  0.00  0.00    +0.154 C 
ATOM      8  C   UNL     1      44.556  22.718  21.798  0.00  0.00    +0.080 C 
ATOM      9  C   UNL     1      44.087  20.327  21.358  0.00  0.00    -0.067 C 
ATOM     10  C   UNL     1      44.557  19.116  21.066  0.00  0.00    +0.060 C 
ATOM     11  C   UNL     1      45.774  19.027  20.232  0.00  0.00    -0.166 A 
ATOM     12  C   UNL     1      46.566  20.172  20.082  0.00  0.00    +0.169 A 
ATOM     13  C   UNL     1      47.709  20.116  19.307  0.00  0.00    -0.040 A 
ATOM     14  C   UNL     1      48.063  18.931  18.689  0.00  0.00    +0.086 A 
ATOM     15  C   UNL     1      47.285  17.791  18.834  0.00  0.00    -0.191 A 
ATOM     16  C   UNL     1      47.721  16.525  18.142  0.00  0.00    +0.098 C 
ATOM     17  C   UNL     1      46.545  15.550  18.061  0.00  0.00    +0.024 C 
ATOM     30  C   UNL     1      45.896  15.462  19.448  0.00  0.00    +0.252 C 
ATOM     31  O   UNL     1      45.346  16.740  19.768  0.00  0.00    -0.305 OA
ATOM     32  C   UNL     1      46.136  17.831  19.604  0.00  0.00    +0.180 A 
ATOM     33  O   UNL     1      46.187  21.318  20.703  0.00  0.00    -0.299 OA
ENDROOT
BRANCH  17  18
ATOM     18  C   UNL     1      47.041  14.189  17.644  0.00  0.00    -0.128 A 
ATOM     19  C   UNL     1      47.514  13.305  18.596  0.00  0.00    +0.068 A 
ATOM     20  C   UNL     1      47.965  12.054  18.220  0.00  0.00    -0.062 A 
ATOM     21  C   UNL     1      47.955  11.684  16.883  0.00  0.00    +0.120 A 
ATOM     24  C   UNL     1      47.486  12.572  15.923  0.00  0.00    +0.050 A 
ATOM     27  C   UNL     1      47.028  13.827  16.306  0.00  0.00    +0.130 A 
BRANCH  21  22
ATOM     22  O   UNL     1      48.404  10.455  16.514  0.00  0.00    -0.305 OA
ATOM     23  C   UNL     1      49.819  10.278  16.432  0.00  0.00    +0.244 C 
ENDBRANCH  21  22
BRANCH  24  25
ATOM     25  O   UNL     1      47.475  12.213  14.610  0.00  0.00    -0.473 OA
ATOM     26  H   UNL     1      47.054  12.861  14.028  0.00  0.00    +0.384 HD
ENDBRANCH  24  25
BRANCH  27  28
ATOM     28  O   UNL     1      46.567  14.699  15.369  0.00  0.00    -0.479 OA
ATOM     29  H   UNL     1      45.750  15.152  15.620  0.00  0.00    +0.391 HD
ENDBRANCH  27  28
ENDBRANCH  17  18
BRANCH   7   6
ATOM      6  C   UNL     1      44.205  21.915  19.462  0.00  0.00    +0.014 C 
BRANCH   6   5
ATOM      5  C   UNL     1      42.677  21.843  19.520  0.00  0.00    +0.061 C 
BRANCH   5   4
ATOM      1  C   UNL     1      39.956  21.547  18.838  0.00  0.00    +0.072 C 
ATOM      2  C   UNL     1      40.955  20.491  18.439  0.00  0.00    -0.133 C 
ATOM      3  C   UNL     1      40.513  19.310  17.614  0.00  0.00    +0.071 C 
ATOM      4  C   UNL     1      42.207  20.599  18.810  0.00  0.00    -0.060 C 
ENDBRANCH   5   4
ENDBRANCH   6   5
ENDBRANCH   7   6
TORSDOF 7
ENDMDL
MODEL 6
REMARK VINA RESULT:      -5.7      3.615      8.092
REMARK  Name = ZINC14614051
REMARK  11 active torsions:
REMARK  status: ('A' for Active; 'I' for Inactive)
REMARK    1  A    between atoms: C1_1  and  C2_2
REMARK    2  A    between atoms: C2_2  and  C26_32
REMARK    3  A    between atoms: C3_3  and  C4_4
REMARK    4  A    between atoms: C4_4  and  C5_5
REMARK    5  A    between atoms: C5_5  and  C6_6
REMARK    6  A    between atoms: C6_6  and  C25_31
REMARK    7  A    between atoms: C16_17  and  C18_20
REMARK    8  A    between atoms: C21_23  and  O4_28
REMARK    9  A    between atoms: C22_24  and  O3_27
REMARK   10  A    between atoms: C23_25  and  O2_26
REMARK   11  A    between atoms: O4_28  and  C24_29
REMARK                            x       y       z     vdW  Elec       q    Type
REMARK                         _______ _______ _______ _____ _____    ______ ____
ROOT
ATOM      7  C   UNL     1      44.971  21.253  20.378  0.00  0.00    +0.154 C 
ATOM      8  C   UNL     1      44.190  22.554  20.573  0.00  0.00    +0.080 C 
ATOM      9  C   UNL     1      45.589  21.246  19.005  0.00  0.00    -0.067 C 
ATOM     10  C   UNL     1      45.814  20.092  18.380  0.00  0.00    +0.060 C 
ATOM     11  C   UNL     1      45.427  18.844  19.070  0.00  0.00    -0.166 A 
ATOM     12  C   UNL     1      44.546  18.926  20.155  0.00  0.00    +0.169 A 
ATOM     13  C   UNL     1      44.168  17.773  20.818  0.00  0.00    -0.040 A 
ATOM     14  C   UNL     1      44.659  16.549  20.404  0.00  0.00    +0.086 A 
ATOM     15  C   UNL     1      45.530  16.458  19.328  0.00  0.00    -0.191 A 
ATOM     16  C   UNL     1      46.031  15.097  18.915  0.00  0.00    +0.098 C 
ATOM     17  C   UNL     1      47.276  15.250  18.038  0.00  0.00    +0.024 C 
ATOM     30  C   UNL     1      46.978  16.299  16.958  0.00  0.00    +0.252 C 
ATOM     31  O   UNL     1      46.775  17.558  17.601  0.00  0.00    -0.305 OA
ATOM     32  C   UNL     1      45.921  17.603  18.655  0.00  0.00    +0.180 A 
ATOM     33  O   UNL     1      44.084  20.145  20.535  0.00  0.00    -0.299 OA
ENDROOT
BRANCH  17  18
ATOM     18  C   UNL     1      47.602  13.930  17.387  0.00  0.00    -0.128 A 
ATOM     19  C   UNL     1      47.073  13.620  16.149  0.00  0.00    +0.068 A 
ATOM     20  C   UNL     1      47.375  12.414  15.545  0.00  0.00    -0.062 A 
ATOM     21  C   UNL     1      48.201  11.503  16.187  0.00  0.00    +0.120 A 
ATOM     24  C   UNL     1      48.731  11.808  17.434  0.00  0.00    +0.050 A 
ATOM     27  C   UNL     1      48.430  13.025  18.035  0.00  0.00    +0.130 A 
BRANCH  21  22
ATOM     22  O   UNL     1      48.492  10.315  15.595  0.00  0.00    -0.305 OA
ATOM     23  C   UNL     1      49.546  10.310  14.630  0.00  0.00    +0.244 C 
ENDBRANCH  21  22
BRANCH  24  25
ATOM     25  O   UNL     1      49.542  10.918  18.067  0.00  0.00    -0.473 OA
ATOM     26  H   UNL     1      49.328  10.785  19.001  0.00  0.00    +0.384 HD
ENDBRANCH  24  25
BRANCH  27  28
ATOM     28  O   UNL     1      48.947  13.328  19.257  0.00  0.00    -0.479 OA
ATOM     29  H   UNL     1      49.524  14.103  19.259  0.00  0.00    +0.391 HD
ENDBRANCH  27  28
ENDBRANCH  17  18
BRANCH   7   6
ATOM      6  C   UNL     1      46.079  21.166  21.431  0.00  0.00    +0.014 C 
BRANCH   6   5
ATOM      5  C   UNL     1      47.339  21.855  20.902  0.00  0.00    +0.061 C 
BRANCH   5   4
ATOM      1  C   UNL     1      49.251  20.776  19.131  0.00  0.00    +0.072 C 
ATOM      2  C   UNL     1      49.475  20.707  20.619  0.00  0.00    -0.133 C 
ATOM      3  C   UNL     1      50.755  20.124  21.162  0.00  0.00    +0.071 C 
ATOM      4  C   UNL     1      48.558  21.153  21.442  0.00  0.00    -0.060 C 
ENDBRANCH   5   4
ENDBRANCH   6   5
ENDBRANCH   7   6
TORSDOF 7
ENDMDL
MODEL 7
REMARK VINA RESULT:      -5.6      1.932      3.646
REMARK  Name = ZINC14614051
REMARK  11 active torsions:
REMARK  status: ('A' for Active; 'I' for Inactive)
REMARK    1  A    between atoms: C1_1  and  C2_2
REMARK    2  A    between atoms: C2_2  and  C26_32
REMARK    3  A    between atoms: C3_3  and  C4_4
REMARK    4  A    between atoms: C4_4  and  C5_5
REMARK    5  A    between atoms: C5_5  and  C6_6
REMARK    6  A    between atoms: C6_6  and  C25_31
REMARK    7  A    between atoms: C16_17  and  C18_20
REMARK    8  A    between atoms: C21_23  and  O4_28
REMARK    9  A    between atoms: C22_24  and  O3_27
REMARK   10  A    between atoms: C23_25  and  O2_26
REMARK   11  A    between atoms: O4_28  and  C24_29
REMARK                            x       y       z     vdW  Elec       q    Type
REMARK                         _______ _______ _______ _____ _____    ______ ____
ROOT
ATOM      7  C   UNL     1      51.815  17.202  19.311  0.00  0.00    +0.154 C 
ATOM      8  C   UNL     1      53.186  16.798  18.766  0.00  0.00    +0.080 C 
ATOM      9  C   UNL     1      50.789  16.192  18.873  0.00  0.00    -0.067 C 
ATOM     10  C   UNL     1      49.519  16.558  18.708  0.00  0.00    +0.060 C 
ATOM     11  C   UNL     1      49.168  17.973  18.954  0.00  0.00    -0.166 A 
ATOM     12  C   UNL     1      50.200  18.918  19.001  0.00  0.00    +0.169 A 
ATOM     13  C   UNL     1      49.900  20.247  19.230  0.00  0.00    -0.040 A 
ATOM     14  C   UNL     1      48.584  20.634  19.408  0.00  0.00    +0.086 A 
ATOM     15  C   UNL     1      47.556  19.704  19.361  0.00  0.00    -0.191 A 
ATOM     16  C   UNL     1      46.139  20.182  19.557  0.00  0.00    +0.098 C 
ATOM     17  C   UNL     1      45.237  18.995  19.904  0.00  0.00    +0.024 C 
ATOM     30  C   UNL     1      45.518  17.869  18.900  0.00  0.00    +0.252 C 
ATOM     31  O   UNL     1      46.863  17.428  19.086  0.00  0.00    -0.305 OA
ATOM     32  C   UNL     1      47.840  18.369  19.135  0.00  0.00    +0.180 A 
ATOM     33  O   UNL     1      51.480  18.502  18.823  0.00  0.00    -0.299 OA
ENDROOT
BRANCH  17  18
ATOM     18  C   UNL     1      43.792  19.412  19.809  0.00  0.00    -0.128 A 
ATOM     19  C   UNL     1      43.397  20.325  18.850  0.00  0.00    +0.068 A 
ATOM     20  C   UNL     1      42.072  20.705  18.756  0.00  0.00    -0.062 A 
ATOM     21  C   UNL     1      41.133  20.180  19.632  0.00  0.00    +0.120 A 
ATOM     24  C   UNL     1      41.527  19.265  20.601  0.00  0.00    +0.050 A 
ATOM     27  C   UNL     1      42.860  18.881  20.689  0.00  0.00    +0.130 A 
BRANCH  21  22
ATOM     22  O   UNL     1      39.831  20.559  19.542  0.00  0.00    -0.305 OA
ATOM     23  C   UNL     1      39.496  21.492  18.513  0.00  0.00    +0.244 C 
ENDBRANCH  21  22
BRANCH  24  25
ATOM     25  O   UNL     1      40.610  18.748  21.463  0.00  0.00    -0.473 OA
ATOM     26  H   UNL     1      40.810  18.910  22.395  0.00  0.00    +0.384 HD
ENDBRANCH  24  25
BRANCH  27  28
ATOM     28  O   UNL     1      43.250  17.986  21.636  0.00  0.00    -0.479 OA
ATOM     29  H   UNL     1      44.006  18.276  22.165  0.00  0.00    +0.391 HD
ENDBRANCH  27  28
ENDBRANCH  17  18
BRANCH   7   6
ATOM      6  C   UNL     1      51.869  17.236  20.840  0.00  0.00    +0.014 C 
BRANCH   6   5
ATOM      5  C   UNL     1      52.695  16.052  21.346  0.00  0.00    +0.061 C 
BRANCH   5   4
ATOM      1  C   UNL     1      52.612  13.353  20.529  0.00  0.00    +0.072 C 
ATOM      2  C   UNL     1      51.800  13.810  21.713  0.00  0.00    -0.133 C 
ATOM      3  C   UNL     1      50.996  12.811  22.505  0.00  0.00    +0.071 C 
ATOM      4  C   UNL     1      51.791  15.075  22.053  0.00  0.00    -0.060 C 
ENDBRANCH   5   4
ENDBRANCH   6   5
ENDBRANCH   7   6
TORSDOF 7
ENDMDL
MODEL 8
REMARK VINA RESULT:      -5.6      3.722      5.140
REMARK  Name = ZINC14614051
REMARK  11 active torsions:
REMARK  status: ('A' for Active; 'I' for Inactive)
REMARK    1  A    between atoms: C1_1  and  C2_2
REMARK    2  A    between atoms: C2_2  and  C26_32
REMARK    3  A    between atoms: C3_3  and  C4_4
REMARK    4  A    between atoms: C4_4  and  C5_5
REMARK    5  A    between atoms: C5_5  and  C6_6
REMARK    6  A    between atoms: C6_6  and  C25_31
REMARK    7  A    between atoms: C16_17  and  C18_20
REMARK    8  A    between atoms: C21_23  and  O4_28
REMARK    9  A    between atoms: C22_24  and  O3_27
REMARK   10  A    between atoms: C23_25  and  O2_26
REMARK   11  A    between atoms: O4_28  and  C24_29
REMARK                            x       y       z     vdW  Elec       q    Type
REMARK                         _______ _______ _______ _____ _____    ______ ____
ROOT
ATOM      7  C   UNL     1      48.264  12.485  17.373  0.00  0.00    +0.154 C 
ATOM      8  C   UNL     1      48.953  11.119  17.353  0.00  0.00    +0.080 C 
ATOM      9  C   UNL     1      49.308  13.569  17.347  0.00  0.00    -0.067 C 
ATOM     10  C   UNL     1      49.057  14.751  17.906  0.00  0.00    +0.060 C 
ATOM     11  C   UNL     1      47.743  14.947  18.553  0.00  0.00    -0.166 A 
ATOM     12  C   UNL     1      46.975  13.818  18.860  0.00  0.00    +0.169 A 
ATOM     13  C   UNL     1      45.742  13.973  19.464  0.00  0.00    -0.040 A 
ATOM     14  C   UNL     1      45.277  15.240  19.764  0.00  0.00    +0.086 A 
ATOM     15  C   UNL     1      46.033  16.365  19.464  0.00  0.00    -0.191 A 
ATOM     16  C   UNL     1      45.481  17.723  19.817  0.00  0.00    +0.098 C 
ATOM     17  C   UNL     1      46.228  18.804  19.033  0.00  0.00    +0.024 C 
ATOM     30  C   UNL     1      47.734  18.546  19.174  0.00  0.00    +0.252 C 
ATOM     31  O   UNL     1      48.037  17.301  18.544  0.00  0.00    -0.305 OA
ATOM     32  C   UNL     1      47.269  16.227  18.857  0.00  0.00    +0.180 A 
ATOM     33  O   UNL     1      47.462  12.588  18.551  0.00  0.00    -0.299 OA
ENDROOT
BRANCH  17  18
ATOM     18  C   UNL     1      45.890  20.162  19.593  0.00  0.00    -0.128 A 
ATOM     19  C   UNL     1      46.741  20.767  20.498  0.00  0.00    +0.068 A 
ATOM     20  C   UNL     1      46.438  22.015  21.009  0.00  0.00    -0.062 A 
ATOM     21  C   UNL     1      45.272  22.660  20.624  0.00  0.00    +0.120 A 
ATOM     24  C   UNL     1      44.411  22.052  19.719  0.00  0.00    +0.050 A 
ATOM     27  C   UNL     1      44.722  20.800  19.203  0.00  0.00    +0.130 A 
BRANCH  21  22
ATOM     22  O   UNL     1      44.973  23.885  21.132  0.00  0.00    -0.305 OA
ATOM     23  C   UNL     1      45.863  24.956  20.814  0.00  0.00    +0.244 C 
ENDBRANCH  21  22
BRANCH  24  25
ATOM     25  O   UNL     1      43.266  22.681  19.340  0.00  0.00    -0.473 OA
ATOM     26  H   UNL     1      43.029  23.438  19.893  0.00  0.00    +0.384 HD
ENDBRANCH  24  25
BRANCH  27  28
ATOM     28  O   UNL     1      43.882  20.201  18.316  0.00  0.00    -0.479 OA
ATOM     29  H   UNL     1      44.166  19.320  18.037  0.00  0.00    +0.391 HD
ENDBRANCH  27  28
ENDBRANCH  17  18
BRANCH   7   6
ATOM      6  C   UNL     1      47.368  12.617  16.140  0.00  0.00    +0.014 C 
BRANCH   6   5
ATOM      5  C   UNL     1      47.927  11.748  15.010  0.00  0.00    +0.061 C 
BRANCH   5   4
ATOM      1  C   UNL     1      50.605  11.708  14.125  0.00  0.00    +0.072 C 
ATOM      2  C   UNL     1      49.588  12.564  13.417  0.00  0.00    -0.133 C 
ATOM      3  C   UNL     1      49.984  13.347  12.191  0.00  0.00    +0.071 C 
ATOM      4  C   UNL     1      48.359  12.630  13.867  0.00  0.00    -0.060 C 
ENDBRANCH   5   4
ENDBRANCH   6   5
ENDBRANCH   7   6
TORSDOF 7
ENDMDL
MODEL 9
REMARK VINA RESULT:      -5.6      4.062      8.344
REMARK  Name = ZINC14614051
REMARK  11 active torsions:
REMARK  status: ('A' for Active; 'I' for Inactive)
REMARK    1  A    between atoms: C1_1  and  C2_2
REMARK    2  A    between atoms: C2_2  and  C26_32
REMARK    3  A    between atoms: C3_3  and  C4_4
REMARK    4  A    between atoms: C4_4  and  C5_5
REMARK    5  A    between atoms: C5_5  and  C6_6
REMARK    6  A    between atoms: C6_6  and  C25_31
REMARK    7  A    between atoms: C16_17  and  C18_20
REMARK    8  A    between atoms: C21_23  and  O4_28
REMARK    9  A    between atoms: C22_24  and  O3_27
REMARK   10  A    between atoms: C23_25  and  O2_26
REMARK   11  A    between atoms: O4_28  and  C24_29
REMARK                            x       y       z     vdW  Elec       q    Type
REMARK                         _______ _______ _______ _____ _____    ______ ____
ROOT
ATOM      7  C   UNL     1      44.818  20.134  20.344  0.00  0.00    +0.154 C 
ATOM      8  C   UNL     1      43.860  21.256  20.749  0.00  0.00    +0.080 C 
ATOM      9  C   UNL     1      45.201  20.306  18.898  0.00  0.00    -0.067 C 
ATOM     10  C   UNL     1      45.524  19.244  18.162  0.00  0.00    +0.060 C 
ATOM     11  C   UNL     1      45.478  17.915  18.806  0.00  0.00    -0.166 A 
ATOM     12  C   UNL     1      44.781  17.781  20.013  0.00  0.00    +0.169 A 
ATOM     13  C   UNL     1      44.723  16.549  20.637  0.00  0.00    -0.040 A 
ATOM     14  C   UNL     1      45.351  15.458  20.064  0.00  0.00    +0.086 A 
ATOM     15  C   UNL     1      46.042  15.581  18.867  0.00  0.00    -0.191 A 
ATOM     16  C   UNL     1      46.704  14.358  18.284  0.00  0.00    +0.098 C 
ATOM     17  C   UNL     1      47.746  14.780  17.246  0.00  0.00    +0.024 C 
ATOM     30  C   UNL     1      47.099  15.804  16.304  0.00  0.00    +0.252 C 
ATOM     31  O   UNL     1      46.781  16.972  17.062  0.00  0.00    -0.305 OA
ATOM     32  C   UNL     1      46.112  16.809  18.231  0.00  0.00    +0.180 A 
ATOM     33  O   UNL     1      44.177  18.873  20.547  0.00  0.00    -0.299 OA
ENDROOT
BRANCH  17  18
ATOM     18  C   UNL     1      48.193  13.576  16.458  0.00  0.00    -0.128 A 
ATOM     19  C   UNL     1      49.538  13.368  16.218  0.00  0.00    +0.068 A 
ATOM     20  C   UNL     1      49.954  12.261  15.501  0.00  0.00    -0.062 A 
ATOM     21  C   UNL     1      49.020  11.361  15.008  0.00  0.00    +0.120 A 
ATOM     24  C   UNL     1      47.667  11.570  15.242  0.00  0.00    +0.050 A 
ATOM     27  C   UNL     1      47.254  12.681  15.969  0.00  0.00    +0.130 A 
BRANCH  21  22
ATOM     22  O   UNL     1      49.430  10.277  14.298  0.00  0.00    -0.305 OA
ATOM     23  C   UNL     1      50.774  10.288  13.814  0.00  0.00    +0.244 C 
ENDBRANCH  21  22
BRANCH  24  25
ATOM     25  O   UNL     1      46.748  10.691  14.760  0.00  0.00    -0.473 OA
ATOM     26  H   UNL     1      46.986  10.298  13.909  0.00  0.00    +0.384 HD
ENDBRANCH  24  25
BRANCH  27  28
ATOM     28  O   UNL     1      45.929  12.889  16.200  0.00  0.00    -0.479 OA
ATOM     29  H   UNL     1      45.441  12.089  16.441  0.00  0.00    +0.391 HD
ENDBRANCH  27  28
ENDBRANCH  17  18
BRANCH   7   6
ATOM      6  C   UNL     1      46.076  20.206  21.211  0.00  0.00    +0.014 C 
BRANCH   6   5
ATOM      5  C   UNL     1      46.941  21.384  20.756  0.00  0.00    +0.061 C 
BRANCH   5   4
ATOM      1  C   UNL     1      48.889  20.485  18.924  0.00  0.00    +0.072 C 
ATOM      2  C   UNL     1      49.278  20.809  20.343  0.00  0.00    -0.133 C 
ATOM      3  C   UNL     1      50.722  20.720  20.767  0.00  0.00    +0.071 C 
ATOM      4  C   UNL     1      48.362  21.167  21.209  0.00  0.00    -0.060 C 
ENDBRANCH   5   4
ENDBRANCH   6   5
ENDBRANCH   7   6
TORSDOF 7
ENDMDL
