MODEL 1
REMARK VINA RESULT:      -6.9      0.000      0.000
REMARK  Name = ZINC85849252
REMARK  9 active torsions:
REMARK  status: ('A' for Active; 'I' for Inactive)
REMARK    1  A    between atoms: C1_1  and  N1_2
REMARK    2  A    between atoms: C6_7  and  O6_46
REMARK    3  A    between atoms: C7_8  and  O5_45
REMARK    4  A    between atoms: C22_25  and  O3_29
REMARK    5  A    between atoms: C23_26  and  O2_27
REMARK    6  A    between atoms: O2_27  and  C24_28
REMARK    7  A    between atoms: O3_29  and  C25_30
REMARK    8  A    between atoms: N2_33  and  C36_44
REMARK    9  A    between atoms: O6_46  and  C37_47
REMARK                            x       y       z     vdW  Elec       q    Type
REMARK                         _______ _______ _______ _____ _____    ______ ____
ROOT
ATOM      1  C   UNL     1      51.731  11.764  16.099  0.00  0.00    +0.318 C 
ATOM      2  N   UNL     1      51.498  13.027  15.386  0.00  0.00    -0.380 N 
ATOM      3  H   UNL     1      52.356  13.556  15.339  0.00  0.00    +0.431 HD
ATOM      4  C   UNL     1      51.008  12.749  14.028  0.00  0.00    +0.268 C 
ATOM      5  C   UNL     1      49.873  11.730  14.104  0.00  0.00    +0.125 C 
ATOM      6  C   UNL     1      48.878  12.089  15.174  0.00  0.00    -0.027 A 
ATOM      7  C   UNL     1      47.646  11.454  15.198  0.00  0.00    -0.066 A 
ATOM      8  C   UNL     1      46.718  11.766  16.179  0.00  0.00    +0.160 A 
ATOM     11  C   UNL     1      47.024  12.707  17.158  0.00  0.00    +0.032 A 
ATOM     14  C   UNL     1      48.259  13.338  17.139  0.00  0.00    +0.171 A 
ATOM     15  O   UNL     1      48.642  14.201  18.093  0.00  0.00    -0.252 OA
ATOM     16  C   UNL     1      47.922  15.208  18.614  0.00  0.00    +0.103 A 
ATOM     17  C   UNL     1      47.656  16.362  17.890  0.00  0.00    +0.005 A 
ATOM     18  C   UNL     1      47.113  17.465  18.523  0.00  0.00    +0.024 A 
ATOM     19  C   UNL     1      46.829  17.416  19.874  0.00  0.00    -0.068 A 
ATOM     20  C   UNL     1      47.009  16.238  20.578  0.00  0.00    +0.023 A 
ATOM     21  C   UNL     1      46.299  18.627  20.593  0.00  0.00    +0.096 C 
ATOM     22  C   UNL     1      46.851  19.906  19.949  0.00  0.00    +0.244 C 
ATOM     23  N   UNL     1      45.860  20.956  20.079  0.00  0.00    -0.569 NA
ATOM     24  C   UNL     1      45.549  21.550  18.772  0.00  0.00    +0.204 C 
ATOM     25  C   UNL     1      46.052  21.980  21.081  0.00  0.00    +0.200 C 
ATOM     26  C   UNL     1      46.849  21.492  22.290  0.00  0.00    +0.096 C 
ATOM     27  C   UNL     1      48.177  20.973  21.786  0.00  0.00    -0.024 A 
ATOM     28  C   UNL     1      49.364  21.232  22.429  0.00  0.00    -0.048 A 
ATOM     29  C   UNL     1      50.560  20.812  21.863  0.00  0.00    +0.135 A 
ATOM     32  C   UNL     1      50.554  20.155  20.637  0.00  0.00    +0.029 A 
ATOM     35  C   UNL     1      49.342  19.912  19.992  0.00  0.00    +0.133 A 
ATOM     36  O   UNL     1      49.319  19.330  18.777  0.00  0.00    -0.257 OA
ATOM     37  C   UNL     1      49.732  18.072  18.536  0.00  0.00    +0.162 A 
ATOM     38  C   UNL     1      49.785  17.667  17.204  0.00  0.00    -0.007 A 
ATOM     39  C   UNL     1      50.179  16.388  16.889  0.00  0.00    +0.008 A 
ATOM     40  C   UNL     1      50.522  15.499  17.893  0.00  0.00    -0.093 A 
ATOM     41  C   UNL     1      50.484  15.898  19.216  0.00  0.00    +0.066 A 
ATOM     42  C   UNL     1      50.933  14.100  17.513  0.00  0.00    +0.122 C 
ATOM     43  C   UNL     1      50.087  17.185  19.537  0.00  0.00    -0.031 A 
ATOM     44  C   UNL     1      48.149  20.273  20.597  0.00  0.00    -0.134 A 
ATOM     45  C   UNL     1      47.547  15.136  19.953  0.00  0.00    +0.012 A 
ATOM     46  C   UNL     1      49.173  13.044  16.123  0.00  0.00    -0.181 A 
ATOM     47  C   UNL     1      50.472  13.809  16.085  0.00  0.00    +0.229 C 
ENDROOT
BRANCH   8   9
ATOM      9  O   UNL     1      45.505  11.151  16.186  0.00  0.00    -0.295 OA
ATOM     10  C   UNL     1      45.191  10.326  15.062  0.00  0.00    +0.256 C 
ENDBRANCH   8   9
BRANCH  11  12
ATOM     12  O   UNL     1      46.117  13.006  18.127  0.00  0.00    -0.466 OA
ATOM     13  H   UNL     1      45.209  13.079  17.806  0.00  0.00    +0.391 HD
ENDBRANCH  11  12
BRANCH  29  30
ATOM     30  O   UNL     1      51.737  21.044  22.505  0.00  0.00    -0.301 OA
ATOM     31  C   UNL     1      52.224  22.387  22.499  0.00  0.00    +0.248 C 
ENDBRANCH  29  30
BRANCH  32  33
ATOM     33  O   UNL     1      51.724  19.751  20.071  0.00  0.00    -0.315 OA
ATOM     34  C   UNL     1      52.360  20.662  19.172  0.00  0.00    +0.224 C 
ENDBRANCH  32  33
TORSDOF 4
ENDMDL
MODEL 2
REMARK VINA RESULT:      -6.9      3.153      8.743
REMARK  Name = ZINC85849252
REMARK  9 active torsions:
REMARK  status: ('A' for Active; 'I' for Inactive)
REMARK    1  A    between atoms: C1_1  and  N1_2
REMARK    2  A    between atoms: C6_7  and  O6_46
REMARK    3  A    between atoms: C7_8  and  O5_45
REMARK    4  A    between atoms: C22_25  and  O3_29
REMARK    5  A    between atoms: C23_26  and  O2_27
REMARK    6  A    between atoms: O2_27  and  C24_28
REMARK    7  A    between atoms: O3_29  and  C25_30
REMARK    8  A    between atoms: N2_33  and  C36_44
REMARK    9  A    between atoms: O6_46  and  C37_47
REMARK                            x       y       z     vdW  Elec       q    Type
REMARK                         _______ _______ _______ _____ _____    ______ ____
ROOT
ATOM      1  C   UNL     1      40.941  19.652  20.785  0.00  0.00    +0.318 C 
ATOM      2  N   UNL     1      41.458  19.147  19.505  0.00  0.00    -0.380 N 
ATOM      3  H   UNL     1      41.160  18.193  19.369  0.00  0.00    +0.431 HD
ATOM      4  C   UNL     1      40.964  19.986  18.404  0.00  0.00    +0.268 C 
ATOM      5  C   UNL     1      41.184  21.456  18.756  0.00  0.00    +0.125 C 
ATOM      6  C   UNL     1      42.573  21.697  19.283  0.00  0.00    -0.027 A 
ATOM      7  C   UNL     1      43.049  22.995  19.379  0.00  0.00    -0.066 A 
ATOM      8  C   UNL     1      44.322  23.238  19.869  0.00  0.00    +0.160 A 
ATOM     11  C   UNL     1      45.126  22.180  20.283  0.00  0.00    +0.032 A 
ATOM     14  C   UNL     1      44.649  20.881  20.192  0.00  0.00    +0.171 A 
ATOM     15  O   UNL     1      45.346  19.825  20.640  0.00  0.00    -0.252 OA
ATOM     16  C   UNL     1      46.647  19.564  20.434  0.00  0.00    +0.103 A 
ATOM     17  C   UNL     1      47.119  19.158  19.194  0.00  0.00    +0.005 A 
ATOM     18  C   UNL     1      48.411  18.681  19.068  0.00  0.00    +0.024 A 
ATOM     19  C   UNL     1      49.234  18.616  20.176  0.00  0.00    -0.068 A 
ATOM     20  C   UNL     1      48.796  19.104  21.395  0.00  0.00    +0.023 A 
ATOM     21  C   UNL     1      50.621  18.040  20.072  0.00  0.00    +0.096 C 
ATOM     22  C   UNL     1      50.657  16.945  18.996  0.00  0.00    +0.244 C 
ATOM     23  N   UNL     1      51.972  16.939  18.386  0.00  0.00    -0.569 NA
ATOM     24  C   UNL     1      51.874  17.064  16.925  0.00  0.00    +0.204 C 
ATOM     25  C   UNL     1      52.910  15.903  18.755  0.00  0.00    +0.200 C 
ATOM     26  C   UNL     1      52.696  15.380  20.175  0.00  0.00    +0.096 C 
ATOM     27  C   UNL     1      51.272  14.879  20.270  0.00  0.00    -0.024 A 
ATOM     28  C   UNL     1      50.942  13.712  20.916  0.00  0.00    -0.048 A 
ATOM     29  C   UNL     1      49.631  13.254  20.883  0.00  0.00    +0.135 A 
ATOM     32  C   UNL     1      48.666  13.964  20.177  0.00  0.00    +0.029 A 
ATOM     35  C   UNL     1      49.021  15.140  19.518  0.00  0.00    +0.133 A 
ATOM     36  O   UNL     1      48.115  15.811  18.781  0.00  0.00    -0.257 OA
ATOM     37  C   UNL     1      47.014  16.396  19.288  0.00  0.00    +0.162 A 
ATOM     38  C   UNL     1      46.100  16.921  18.379  0.00  0.00    -0.007 A 
ATOM     39  C   UNL     1      44.963  17.550  18.830  0.00  0.00    +0.008 A 
ATOM     40  C   UNL     1      44.726  17.663  20.190  0.00  0.00    -0.093 A 
ATOM     41  C   UNL     1      45.622  17.133  21.097  0.00  0.00    +0.066 A 
ATOM     42  C   UNL     1      43.478  18.373  20.651  0.00  0.00    +0.122 C 
ATOM     43  C   UNL     1      46.768  16.500  20.646  0.00  0.00    -0.031 A 
ATOM     44  C   UNL     1      50.315  15.626  19.613  0.00  0.00    -0.134 A 
ATOM     45  C   UNL     1      47.512  19.582  21.525  0.00  0.00    +0.012 A 
ATOM     46  C   UNL     1      43.377  20.644  19.663  0.00  0.00    -0.181 A 
ATOM     47  C   UNL     1      42.923  19.215  19.502  0.00  0.00    +0.229 C 
ENDROOT
BRANCH   8   9
ATOM      9  O   UNL     1      44.788  24.513  19.945  0.00  0.00    -0.295 OA
ATOM     10  C   UNL     1      44.713  25.302  18.755  0.00  0.00    +0.256 C 
ENDBRANCH   8   9
BRANCH  11  12
ATOM     12  O   UNL     1      46.373  22.419  20.773  0.00  0.00    -0.466 OA
ATOM     13  H   UNL     1      46.555  21.981  21.615  0.00  0.00    +0.391 HD
ENDBRANCH  11  12
BRANCH  29  30
ATOM     30  O   UNL     1      49.292  12.111  21.539  0.00  0.00    -0.301 OA
ATOM     31  C   UNL     1      49.675  10.877  20.931  0.00  0.00    +0.248 C 
ENDBRANCH  29  30
BRANCH  32  33
ATOM     33  O   UNL     1      47.381  13.515  20.132  0.00  0.00    -0.315 OA
ATOM     34  C   UNL     1      47.010  12.724  19.001  0.00  0.00    +0.224 C 
ENDBRANCH  32  33
TORSDOF 4
ENDMDL
MODEL 3
REMARK VINA RESULT:      -6.6      3.476      6.090
REMARK  Name = ZINC85849252
REMARK  9 active torsions:
REMARK  status: ('A' for Active; 'I' for Inactive)
REMARK    1  A    between atoms: C1_1  and  N1_2
REMARK    2  A    between atoms: C6_7  and  O6_46
REMARK    3  A    between atoms: C7_8  and  O5_45
REMARK    4  A    between atoms: C22_25  and  O3_29
REMARK    5  A    between atoms: C23_26  and  O2_27
REMARK    6  A    between atoms: O2_27  and  C24_28
REMARK    7  A    between atoms: O3_29  and  C25_30
REMARK    8  A    between atoms: N2_33  and  C36_44
REMARK    9  A    between atoms: O6_46  and  C37_47
REMARK                            x       y       z     vdW  Elec       q    Type
REMARK                         _______ _______ _______ _____ _____    ______ ____
ROOT
ATOM      1  C   UNL     1      49.337  11.082  20.023  0.00  0.00    +0.318 C 
ATOM      2  N   UNL     1      49.079  11.804  21.276  0.00  0.00    -0.380 N 
ATOM      3  H   UNL     1      48.176  11.540  21.643  0.00  0.00    +0.431 HD
ATOM      4  C   UNL     1      50.127  11.489  22.257  0.00  0.00    +0.268 C 
ATOM      5  C   UNL     1      51.495  11.638  21.594  0.00  0.00    +0.125 C 
ATOM      6  C   UNL     1      51.594  12.922  20.813  0.00  0.00    -0.027 A 
ATOM      7  C   UNL     1      52.837  13.365  20.390  0.00  0.00    -0.066 A 
ATOM      8  C   UNL     1      52.949  14.541  19.664  0.00  0.00    +0.160 A 
ATOM     11  C   UNL     1      51.811  15.275  19.341  0.00  0.00    +0.032 A 
ATOM     14  C   UNL     1      50.567  14.828  19.760  0.00  0.00    +0.171 A 
ATOM     15  O   UNL     1      49.427  15.452  19.421  0.00  0.00    -0.252 OA
ATOM     16  C   UNL     1      49.179  16.771  19.463  0.00  0.00    +0.103 A 
ATOM     17  C   UNL     1      49.010  17.441  20.666  0.00  0.00    +0.005 A 
ATOM     18  C   UNL     1      48.536  18.739  20.673  0.00  0.00    +0.024 A 
ATOM     19  C   UNL     1      48.236  19.372  19.482  0.00  0.00    -0.068 A 
ATOM     20  C   UNL     1      48.488  18.738  18.278  0.00  0.00    +0.023 A 
ATOM     21  C   UNL     1      47.657  20.762  19.472  0.00  0.00    +0.096 C 
ATOM     22  C   UNL     1      46.792  20.980  20.721  0.00  0.00    +0.244 C 
ATOM     23  N   UNL     1      46.871  22.376  21.101  0.00  0.00    -0.569 NA
ATOM     24  C   UNL     1      47.281  22.516  22.505  0.00  0.00    +0.204 C 
ATOM     25  C   UNL     1      45.761  23.250  20.795  0.00  0.00    +0.200 C 
ATOM     26  C   UNL     1      44.978  22.811  19.559  0.00  0.00    +0.096 C 
ATOM     27  C   UNL     1      44.503  21.395  19.793  0.00  0.00    -0.024 A 
ATOM     28  C   UNL     1      43.241  20.973  19.451  0.00  0.00    -0.048 A 
ATOM     29  C   UNL     1      42.830  19.688  19.783  0.00  0.00    +0.135 A 
ATOM     32  C   UNL     1      43.688  18.845  20.482  0.00  0.00    +0.029 A 
ATOM     35  C   UNL     1      44.960  19.294  20.833  0.00  0.00    +0.133 A 
ATOM     36  O   UNL     1      45.784  18.515  21.560  0.00  0.00    -0.257 OA
ATOM     37  C   UNL     1      46.286  17.342  21.132  0.00  0.00    +0.162 A 
ATOM     38  C   UNL     1      47.000  16.584  22.056  0.00  0.00    -0.007 A 
ATOM     39  C   UNL     1      47.557  15.384  21.678  0.00  0.00    +0.008 A 
ATOM     40  C   UNL     1      47.410  14.928  20.379  0.00  0.00    -0.093 A 
ATOM     41  C   UNL     1      46.691  15.669  19.461  0.00  0.00    +0.066 A 
ATOM     42  C   UNL     1      48.047  13.617  19.995  0.00  0.00    +0.122 C 
ATOM     43  C   UNL     1      46.130  16.878  19.838  0.00  0.00    -0.031 A 
ATOM     44  C   UNL     1      45.387  20.552  20.437  0.00  0.00    -0.134 A 
ATOM     45  C   UNL     1      48.963  17.446  18.264  0.00  0.00    +0.012 A 
ATOM     46  C   UNL     1      50.468  13.661  20.523  0.00  0.00    -0.181 A 
ATOM     47  C   UNL     1      49.110  13.250  21.031  0.00  0.00    +0.229 C 
ENDROOT
BRANCH   8   9
ATOM      9  O   UNL     1      54.173  14.979  19.266  0.00  0.00    -0.295 OA
ATOM     10  C   UNL     1      55.041  15.488  20.281  0.00  0.00    +0.256 C 
ENDBRANCH   8   9
BRANCH  11  12
ATOM     12  O   UNL     1      51.920  16.424  18.620  0.00  0.00    -0.466 OA
ATOM     13  H   UNL     1      52.758  16.513  18.147  0.00  0.00    +0.391 HD
ENDBRANCH  11  12
BRANCH  29  30
ATOM     30  O   UNL     1      41.591  19.256  19.426  0.00  0.00    -0.301 OA
ATOM     31  C   UNL     1      40.919  19.988  18.400  0.00  0.00    +0.248 C 
ENDBRANCH  29  30
BRANCH  32  33
ATOM     33  O   UNL     1      43.288  17.589  20.820  0.00  0.00    -0.315 OA
ATOM     34  C   UNL     1      42.790  17.401  22.146  0.00  0.00    +0.224 C 
ENDBRANCH  32  33
TORSDOF 4
ENDMDL
MODEL 4
REMARK VINA RESULT:      -5.6      2.211      8.623
REMARK  Name = ZINC85849252
REMARK  9 active torsions:
REMARK  status: ('A' for Active; 'I' for Inactive)
REMARK    1  A    between atoms: C1_1  and  N1_2
REMARK    2  A    between atoms: C6_7  and  O6_46
REMARK    3  A    between atoms: C7_8  and  O5_45
REMARK    4  A    between atoms: C22_25  and  O3_29
REMARK    5  A    between atoms: C23_26  and  O2_27
REMARK    6  A    between atoms: O2_27  and  C24_28
REMARK    7  A    between atoms: O3_29  and  C25_30
REMARK    8  A    between atoms: N2_33  and  C36_44
REMARK    9  A    between atoms: O6_46  and  C37_47
REMARK                            x       y       z     vdW  Elec       q    Type
REMARK                         _______ _______ _______ _____ _____    ______ ____
ROOT
ATOM      1  C   UNL     1      52.411  21.833  19.896  0.00  0.00    +0.318 C 
ATOM      2  N   UNL     1      52.632  20.512  20.498  0.00  0.00    -0.380 N 
ATOM      3  H   UNL     1      53.521  20.143  20.195  0.00  0.00    +0.431 HD
ATOM      4  C   UNL     1      52.613  20.624  21.964  0.00  0.00    +0.268 C 
ATOM      5  C   UNL     1      51.385  21.427  22.389  0.00  0.00    +0.125 C 
ATOM      6  C   UNL     1      50.143  20.955  21.681  0.00  0.00    -0.027 A 
ATOM      7  C   UNL     1      48.901  21.360  22.144  0.00  0.00    -0.066 A 
ATOM      8  C   UNL     1      47.746  20.942  21.502  0.00  0.00    +0.160 A 
ATOM     11  C   UNL     1      47.827  20.126  20.377  0.00  0.00    +0.032 A 
ATOM     14  C   UNL     1      49.070  19.724  19.910  0.00  0.00    +0.171 A 
ATOM     15  O   UNL     1      49.218  18.997  18.792  0.00  0.00    -0.252 OA
ATOM     16  C   UNL     1      48.520  17.908  18.432  0.00  0.00    +0.103 A 
ATOM     17  C   UNL     1      48.698  16.688  19.069  0.00  0.00    +0.005 A 
ATOM     18  C   UNL     1      48.138  15.541  18.535  0.00  0.00    +0.024 A 
ATOM     19  C   UNL     1      47.396  15.612  17.372  0.00  0.00    -0.068 A 
ATOM     20  C   UNL     1      47.141  16.840  16.786  0.00  0.00    +0.023 A 
ATOM     21  C   UNL     1      46.833  14.367  16.741  0.00  0.00    +0.096 C 
ATOM     22  C   UNL     1      47.760  13.174  17.013  0.00  0.00    +0.244 C 
ATOM     23  N   UNL     1      46.953  11.973  17.106  0.00  0.00    -0.569 NA
ATOM     24  C   UNL     1      47.210  11.262  18.366  0.00  0.00    +0.204 C 
ATOM     25  C   UNL     1      46.933  11.056  15.989  0.00  0.00    +0.200 C 
ATOM     26  C   UNL     1      47.175  11.743  14.646  0.00  0.00    +0.096 C 
ATOM     27  C   UNL     1      48.502  12.462  14.730  0.00  0.00    -0.024 A 
ATOM     28  C   UNL     1      49.413  12.455  13.702  0.00  0.00    -0.048 A 
ATOM     29  C   UNL     1      50.656  13.049  13.877  0.00  0.00    +0.135 A 
ATOM     32  C   UNL     1      50.981  13.627  15.100  0.00  0.00    +0.029 A 
ATOM     35  C   UNL     1      50.050  13.615  16.137  0.00  0.00    +0.133 A 
ATOM     36  O   UNL     1      50.367  14.116  17.346  0.00  0.00    -0.257 OA
ATOM     37  C   UNL     1      50.646  15.412  17.576  0.00  0.00    +0.162 A 
ATOM     38  C   UNL     1      51.101  15.747  18.849  0.00  0.00    -0.007 A 
ATOM     39  C   UNL     1      51.385  17.057  19.156  0.00  0.00    +0.008 A 
ATOM     40  C   UNL     1      51.220  18.046  18.202  0.00  0.00    -0.093 A 
ATOM     41  C   UNL     1      50.781  17.720  16.933  0.00  0.00    +0.066 A 
ATOM     42  C   UNL     1      51.526  19.474  18.577  0.00  0.00    +0.122 C 
ATOM     43  C   UNL     1      50.494  16.402  16.620  0.00  0.00    -0.031 A 
ATOM     44  C   UNL     1      48.788  13.080  15.931  0.00  0.00    -0.134 A 
ATOM     45  C   UNL     1      47.694  17.985  17.314  0.00  0.00    +0.012 A 
ATOM     46  C   UNL     1      50.227  20.121  20.587  0.00  0.00    -0.181 A 
ATOM     47  C   UNL     1      51.555  19.599  20.101  0.00  0.00    +0.229 C 
ENDROOT
BRANCH   8   9
ATOM      9  O   UNL     1      46.531  21.330  21.972  0.00  0.00    -0.295 OA
ATOM     10  C   UNL     1      46.082  22.637  21.608  0.00  0.00    +0.256 C 
ENDBRANCH   8   9
BRANCH  11  12
ATOM     12  O   UNL     1      46.693  19.723  19.741  0.00  0.00    -0.466 OA
ATOM     13  H   UNL     1      46.172  20.448  19.371  0.00  0.00    +0.391 HD
ENDBRANCH  11  12
BRANCH  29  30
ATOM     30  O   UNL     1      51.554  13.066  12.855  0.00  0.00    -0.301 OA
ATOM     31  C   UNL     1      51.026  13.080  11.529  0.00  0.00    +0.248 C 
ENDBRANCH  29  30
BRANCH  32  33
ATOM     33  O   UNL     1      52.202  14.202  15.282  0.00  0.00    -0.315 OA
ATOM     34  C   UNL     1      52.654  15.101  14.268  0.00  0.00    +0.224 C 
ENDBRANCH  32  33
TORSDOF 4
ENDMDL
MODEL 5
REMARK VINA RESULT:      -5.1      3.057      7.985
REMARK  Name = ZINC85849252
REMARK  9 active torsions:
REMARK  status: ('A' for Active; 'I' for Inactive)
REMARK    1  A    between atoms: C1_1  and  N1_2
REMARK    2  A    between atoms: C6_7  and  O6_46
REMARK    3  A    between atoms: C7_8  and  O5_45
REMARK    4  A    between atoms: C22_25  and  O3_29
REMARK    5  A    between atoms: C23_26  and  O2_27
REMARK    6  A    between atoms: O2_27  and  C24_28
REMARK    7  A    between atoms: O3_29  and  C25_30
REMARK    8  A    between atoms: N2_33  and  C36_44
REMARK    9  A    between atoms: O6_46  and  C37_47
REMARK                            x       y       z     vdW  Elec       q    Type
REMARK                         _______ _______ _______ _____ _____    ______ ____
ROOT
ATOM      1  C   UNL     1      46.605  23.505  20.613  0.00  0.00    +0.318 C 
ATOM      2  N   UNL     1      46.693  22.527  21.705  0.00  0.00    -0.380 N 
ATOM      3  H   UNL     1      47.486  22.740  22.291  0.00  0.00    +0.431 HD
ATOM      4  C   UNL     1      45.459  22.562  22.504  0.00  0.00    +0.268 C 
ATOM      5  C   UNL     1      44.254  22.509  21.567  0.00  0.00    +0.125 C 
ATOM      6  C   UNL     1      44.412  21.436  20.523  0.00  0.00    -0.027 A 
ATOM      7  C   UNL     1      43.310  21.047  19.776  0.00  0.00    -0.066 A 
ATOM      8  C   UNL     1      43.437  20.067  18.804  0.00  0.00    +0.160 A 
ATOM     11  C   UNL     1      44.674  19.477  18.561  0.00  0.00    +0.032 A 
ATOM     14  C   UNL     1      45.777  19.870  19.305  0.00  0.00    +0.171 A 
ATOM     15  O   UNL     1      47.010  19.392  19.071  0.00  0.00    -0.252 OA
ATOM     16  C   UNL     1      47.360  18.111  18.873  0.00  0.00    +0.103 A 
ATOM     17  C   UNL     1      47.364  17.190  19.912  0.00  0.00    +0.005 A 
ATOM     18  C   UNL     1      47.942  15.947  19.730  0.00  0.00    +0.024 A 
ATOM     19  C   UNL     1      48.508  15.619  18.514  0.00  0.00    -0.068 A 
ATOM     20  C   UNL     1      48.425  16.500  17.450  0.00  0.00    +0.023 A 
ATOM     21  C   UNL     1      49.198  14.295  18.317  0.00  0.00    +0.096 C 
ATOM     22  C   UNL     1      49.836  13.834  19.634  0.00  0.00    +0.244 C 
ATOM     23  N   UNL     1      49.811  12.386  19.679  0.00  0.00    -0.569 NA
ATOM     24  C   UNL     1      49.166  11.909  20.911  0.00  0.00    +0.204 C 
ATOM     25  C   UNL     1      51.031  11.656  19.417  0.00  0.00    +0.200 C 
ATOM     26  C   UNL     1      51.985  12.400  18.485  0.00  0.00    +0.096 C 
ATOM     27  C   UNL     1      52.283  13.744  19.110  0.00  0.00    -0.024 A 
ATOM     28  C   UNL     1      53.545  14.289  19.124  0.00  0.00    -0.048 A 
ATOM     29  C   UNL     1      53.774  15.480  19.801  0.00  0.00    +0.135 A 
ATOM     32  C   UNL     1      52.733  16.101  20.483  0.00  0.00    +0.029 A 
ATOM     35  C   UNL     1      51.462  15.528  20.469  0.00  0.00    +0.133 A 
ATOM     36  O   UNL     1      50.455  16.082  21.171  0.00  0.00    -0.257 OA
ATOM     37  C   UNL     1      49.939  17.299  20.917  0.00  0.00    +0.162 A 
ATOM     38  C   UNL     1      49.004  17.792  21.824  0.00  0.00    -0.007 A 
ATOM     39  C   UNL     1      48.423  19.021  21.613  0.00  0.00    +0.008 A 
ATOM     40  C   UNL     1      48.764  19.769  20.499  0.00  0.00    -0.093 A 
ATOM     41  C   UNL     1      49.700  19.291  19.602  0.00  0.00    +0.066 A 
ATOM     42  C   UNL     1      48.096  21.104  20.290  0.00  0.00    +0.122 C 
ATOM     43  C   UNL     1      50.287  18.055  19.811  0.00  0.00    -0.031 A 
ATOM     44  C   UNL     1      51.227  14.377  19.734  0.00  0.00    -0.134 A 
ATOM     45  C   UNL     1      47.849  17.739  17.624  0.00  0.00    +0.012 A 
ATOM     46  C   UNL     1      45.632  20.833  20.307  0.00  0.00    -0.181 A 
ATOM     47  C   UNL     1      46.834  21.176  21.151  0.00  0.00    +0.229 C 
ENDROOT
BRANCH   8   9
ATOM      9  O   UNL     1      42.348  19.678  18.088  0.00  0.00    -0.295 OA
ATOM     10  C   UNL     1      41.088  20.235  18.469  0.00  0.00    +0.256 C 
ENDBRANCH   8   9
BRANCH  11  12
ATOM     12  O   UNL     1      44.800  18.521  17.601  0.00  0.00    -0.466 OA
ATOM     13  H   UNL     1      45.617  18.009  17.662  0.00  0.00    +0.391 HD
ENDBRANCH  11  12
BRANCH  29  30
ATOM     30  O   UNL     1      55.015  16.037  19.799  0.00  0.00    -0.301 OA
ATOM     31  C   UNL     1      56.124  15.147  19.663  0.00  0.00    +0.248 C 
ENDBRANCH  29  30
BRANCH  32  33
ATOM     33  O   UNL     1      52.953  17.262  21.158  0.00  0.00    -0.315 OA
ATOM     34  C   UNL     1      53.434  17.153  22.499  0.00  0.00    +0.224 C 
ENDBRANCH  32  33
TORSDOF 4
ENDMDL
MODEL 6
REMARK VINA RESULT:      -5.0      2.602      5.058
REMARK  Name = ZINC85849252
REMARK  9 active torsions:
REMARK  status: ('A' for Active; 'I' for Inactive)
REMARK    1  A    between atoms: C1_1  and  N1_2
REMARK    2  A    between atoms: C6_7  and  O6_46
REMARK    3  A    between atoms: C7_8  and  O5_45
REMARK    4  A    between atoms: C22_25  and  O3_29
REMARK    5  A    between atoms: C23_26  and  O2_27
REMARK    6  A    between atoms: O2_27  and  C24_28
REMARK    7  A    between atoms: O3_29  and  C25_30
REMARK    8  A    between atoms: N2_33  and  C36_44
REMARK    9  A    between atoms: O6_46  and  C37_47
REMARK                            x       y       z     vdW  Elec       q    Type
REMARK                         _______ _______ _______ _____ _____    ______ ____
ROOT
ATOM      1  C   UNL     1      47.376  10.710  16.656  0.00  0.00    +0.318 C 
ATOM      2  N   UNL     1      47.687  11.026  18.057  0.00  0.00    -0.380 N 
ATOM      3  H   UNL     1      46.902  10.783  18.643  0.00  0.00    +0.431 HD
ATOM      4  C   UNL     1      48.878  10.277  18.483  0.00  0.00    +0.268 C 
ATOM      5  C   UNL     1      49.975  10.442  17.433  0.00  0.00    +0.125 C 
ATOM      6  C   UNL     1      50.133  11.881  17.019  0.00  0.00    -0.027 A 
ATOM      7  C   UNL     1      51.257  12.263  16.304  0.00  0.00    -0.066 A 
ATOM      8  C   UNL     1      51.417  13.581  15.908  0.00  0.00    +0.160 A 
ATOM     11  C   UNL     1      50.441  14.527  16.211  0.00  0.00    +0.032 A 
ATOM     14  C   UNL     1      49.314  14.144  16.921  0.00  0.00    +0.171 A 
ATOM     15  O   UNL     1      48.305  14.990  17.183  0.00  0.00    -0.252 OA
ATOM     16  C   UNL     1      48.400  16.249  17.642  0.00  0.00    +0.103 A 
ATOM     17  C   UNL     1      48.766  16.519  18.953  0.00  0.00    +0.005 A 
ATOM     18  C   UNL     1      48.636  17.800  19.456  0.00  0.00    +0.024 A 
ATOM     19  C   UNL     1      48.148  18.812  18.653  0.00  0.00    -0.068 A 
ATOM     20  C   UNL     1      47.867  18.565  17.320  0.00  0.00    +0.023 A 
ATOM     21  C   UNL     1      47.938  20.198  19.202  0.00  0.00    +0.096 C 
ATOM     22  C   UNL     1      47.568  20.124  20.689  0.00  0.00    +0.244 C 
ATOM     23  N   UNL     1      48.085  21.303  21.355  0.00  0.00    -0.569 NA
ATOM     24  C   UNL     1      48.922  20.934  22.505  0.00  0.00    +0.204 C 
ATOM     25  C   UNL     1      47.173  22.371  21.699  0.00  0.00    +0.200 C 
ATOM     26  C   UNL     1      45.972  22.458  20.758  0.00  0.00    +0.096 C 
ATOM     27  C   UNL     1      45.271  21.118  20.782  0.00  0.00    -0.024 A 
ATOM     28  C   UNL     1      43.903  21.001  20.821  0.00  0.00    -0.048 A 
ATOM     29  C   UNL     1      43.321  19.746  20.943  0.00  0.00    +0.135 A 
ATOM     32  C   UNL     1      44.126  18.617  21.051  0.00  0.00    +0.029 A 
ATOM     35  C   UNL     1      45.514  18.755  21.023  0.00  0.00    +0.133 A 
ATOM     36  O   UNL     1      46.311  17.681  21.185  0.00  0.00    -0.257 OA
ATOM     37  C   UNL     1      46.368  16.648  20.324  0.00  0.00    +0.162 A 
ATOM     38  C   UNL     1      47.129  15.546  20.707  0.00  0.00    -0.007 A 
ATOM     39  C   UNL     1      47.247  14.465  19.866  0.00  0.00    +0.008 A 
ATOM     40  C   UNL     1      46.610  14.468  18.636  0.00  0.00    -0.093 A 
ATOM     41  C   UNL     1      45.843  15.553  18.256  0.00  0.00    +0.066 A 
ATOM     42  C   UNL     1      46.773  13.274  17.732  0.00  0.00    +0.122 C 
ATOM     43  C   UNL     1      45.723  16.643  19.100  0.00  0.00    -0.031 A 
ATOM     44  C   UNL     1      46.084  20.003  20.831  0.00  0.00    -0.134 A 
ATOM     45  C   UNL     1      47.997  17.292  16.813  0.00  0.00    +0.012 A 
ATOM     46  C   UNL     1      49.179  12.819  17.349  0.00  0.00    -0.181 A 
ATOM     47  C   UNL     1      47.981  12.456  18.190  0.00  0.00    +0.229 C 
ENDROOT
BRANCH   8   9
ATOM      9  O   UNL     1      52.530  13.953  15.221  0.00  0.00    -0.295 OA
ATOM     10  C   UNL     1      52.537  13.705  13.814  0.00  0.00    +0.256 C 
ENDBRANCH   8   9
BRANCH  11  12
ATOM     12  O   UNL     1      50.594  15.819  15.813  0.00  0.00    -0.466 OA
ATOM     13  H   UNL     1      50.909  15.916  14.904  0.00  0.00    +0.391 HD
ENDBRANCH  11  12
BRANCH  29  30
ATOM     30  O   UNL     1      41.967  19.621  20.959  0.00  0.00    -0.301 OA
ATOM     31  C   UNL     1      41.297  19.673  19.699  0.00  0.00    +0.248 C 
ENDBRANCH  29  30
BRANCH  32  33
ATOM     33  O   UNL     1      43.564  17.384  21.182  0.00  0.00    -0.315 OA
ATOM     34  C   UNL     1      43.227  16.962  22.505  0.00  0.00    +0.224 C 
ENDBRANCH  32  33
TORSDOF 4
ENDMDL
MODEL 7
REMARK VINA RESULT:      -3.6      4.216      7.729
REMARK  Name = ZINC85849252
REMARK  9 active torsions:
REMARK  status: ('A' for Active; 'I' for Inactive)
REMARK    1  A    between atoms: C1_1  and  N1_2
REMARK    2  A    between atoms: C6_7  and  O6_46
REMARK    3  A    between atoms: C7_8  and  O5_45
REMARK    4  A    between atoms: C22_25  and  O3_29
REMARK    5  A    between atoms: C23_26  and  O2_27
REMARK    6  A    between atoms: O2_27  and  C24_28
REMARK    7  A    between atoms: O3_29  and  C25_30
REMARK    8  A    between atoms: N2_33  and  C36_44
REMARK    9  A    between atoms: O6_46  and  C37_47
REMARK                            x       y       z     vdW  Elec       q    Type
REMARK                         _______ _______ _______ _____ _____    ______ ____
ROOT
ATOM      1  C   UNL     1      46.880  18.127  18.612  0.00  0.00    +0.318 C 
ATOM      2  N   UNL     1      47.261  17.660  19.953  0.00  0.00    -0.380 N 
ATOM      3  H   UNL     1      47.715  18.407  20.457  0.00  0.00    +0.431 HD
ATOM      4  C   UNL     1      46.064  17.220  20.684  0.00  0.00    +0.268 C 
ATOM      5  C   UNL     1      45.244  16.291  19.791  0.00  0.00    +0.125 C 
ATOM      6  C   UNL     1      46.112  15.255  19.127  0.00  0.00    -0.027 A 
ATOM      7  C   UNL     1      45.517  14.160  18.518  0.00  0.00    -0.066 A 
ATOM      8  C   UNL     1      46.298  13.199  17.895  0.00  0.00    +0.160 A 
ATOM     11  C   UNL     1      47.682  13.335  17.862  0.00  0.00    +0.032 A 
ATOM     14  C   UNL     1      48.277  14.433  18.466  0.00  0.00    +0.171 A 
ATOM     15  O   UNL     1      49.599  14.659  18.408  0.00  0.00    -0.252 OA
ATOM     16  C   UNL     1      50.585  13.771  18.616  0.00  0.00    +0.103 A 
ATOM     17  C   UNL     1      50.875  13.293  19.886  0.00  0.00    +0.005 A 
ATOM     18  C   UNL     1      52.029  12.562  20.102  0.00  0.00    +0.024 A 
ATOM     19  C   UNL     1      52.889  12.302  19.052  0.00  0.00    -0.068 A 
ATOM     20  C   UNL     1      52.557  12.700  17.769  0.00  0.00    +0.023 A 
ATOM     21  C   UNL     1      54.181  11.564  19.280  0.00  0.00    +0.096 C 
ATOM     22  C   UNL     1      54.720  11.868  20.684  0.00  0.00    +0.244 C 
ATOM     23  N   UNL     1      55.432  10.703  21.169  0.00  0.00    -0.569 NA
ATOM     24  C   UNL     1      54.916  10.277  22.478  0.00  0.00    +0.204 C 
ATOM     25  C   UNL     1      56.878  10.712  21.161  0.00  0.00    +0.200 C 
ATOM     26  C   UNL     1      57.464  11.594  20.060  0.00  0.00    +0.096 C 
ATOM     27  C   UNL     1      56.916  12.990  20.249  0.00  0.00    -0.024 A 
ATOM     28  C   UNL     1      57.695  14.114  20.114  0.00  0.00    -0.048 A 
ATOM     29  C   UNL     1      57.158  15.363  20.398  0.00  0.00    +0.135 A 
ATOM     32  C   UNL     1      55.844  15.468  20.842  0.00  0.00    +0.029 A 
ATOM     35  C   UNL     1      55.071  14.316  20.985  0.00  0.00    +0.133 A 
ATOM     36  O   UNL     1      53.817  14.390  21.469  0.00  0.00    -0.257 OA
ATOM     37  C   UNL     1      52.805  15.024  20.848  0.00  0.00    +0.162 A 
ATOM     38  C   UNL     1      51.606  15.141  21.547  0.00  0.00    -0.007 A 
ATOM     39  C   UNL     1      50.526  15.759  20.962  0.00  0.00    +0.008 A 
ATOM     40  C   UNL     1      50.627  16.268  19.678  0.00  0.00    -0.093 A 
ATOM     41  C   UNL     1      51.818  16.167  18.984  0.00  0.00    +0.066 A 
ATOM     42  C   UNL     1      49.419  16.926  19.061  0.00  0.00    +0.122 C 
ATOM     43  C   UNL     1      52.907  15.544  19.570  0.00  0.00    -0.031 A 
ATOM     44  C   UNL     1      55.593  13.081  20.634  0.00  0.00    -0.134 A 
ATOM     45  C   UNL     1      51.408  13.425  17.548  0.00  0.00    +0.012 A 
ATOM     46  C   UNL     1      47.484  15.378  19.124  0.00  0.00    -0.181 A 
ATOM     47  C   UNL     1      48.169  16.514  19.840  0.00  0.00    +0.229 C 
ENDROOT
BRANCH   8   9
ATOM      9  O   UNL     1      45.709  12.119  17.315  0.00  0.00    -0.295 OA
ATOM     10  C   UNL     1      44.295  12.180  17.117  0.00  0.00    +0.256 C 
ENDBRANCH   8   9
BRANCH  11  12
ATOM     12  O   UNL     1      48.448  12.397  17.242  0.00  0.00    -0.466 OA
ATOM     13  H   UNL     1      49.156  12.039  17.794  0.00  0.00    +0.391 HD
ENDBRANCH  11  12
BRANCH  29  30
ATOM     30  O   UNL     1      57.916  16.482  20.245  0.00  0.00    -0.301 OA
ATOM     31  C   UNL     1      59.034  16.632  21.121  0.00  0.00    +0.248 C 
ENDBRANCH  29  30
BRANCH  32  33
ATOM     33  O   UNL     1      55.315  16.688  21.133  0.00  0.00    -0.315 OA
ATOM     34  C   UNL     1      55.021  16.957  22.505  0.00  0.00    +0.224 C 
ENDBRANCH  32  33
TORSDOF 4
ENDMDL
MODEL 8
REMARK VINA RESULT:      -3.4      1.515      9.267
REMARK  Name = ZINC85849252
REMARK  9 active torsions:
REMARK  status: ('A' for Active; 'I' for Inactive)
REMARK    1  A    between atoms: C1_1  and  N1_2
REMARK    2  A    between atoms: C6_7  and  O6_46
REMARK    3  A    between atoms: C7_8  and  O5_45
REMARK    4  A    between atoms: C22_25  and  O3_29
REMARK    5  A    between atoms: C23_26  and  O2_27
REMARK    6  A    between atoms: O2_27  and  C24_28
REMARK    7  A    between atoms: O3_29  and  C25_30
REMARK    8  A    between atoms: N2_33  and  C36_44
REMARK    9  A    between atoms: O6_46  and  C37_47
REMARK                            x       y       z     vdW  Elec       q    Type
REMARK                         _______ _______ _______ _____ _____    ______ ____
ROOT
ATOM      1  C   UNL     1      44.218  20.599  20.540  0.00  0.00    +0.318 C 
ATOM      2  N   UNL     1      44.778  20.551  19.182  0.00  0.00    -0.380 N 
ATOM      3  H   UNL     1      44.065  20.265  18.529  0.00  0.00    +0.431 HD
ATOM      4  C   UNL     1      45.293  21.877  18.810  0.00  0.00    +0.268 C 
ATOM      5  C   UNL     1      46.165  22.413  19.944  0.00  0.00    +0.125 C 
ATOM      6  C   UNL     1      47.133  21.371  20.437  0.00  0.00    -0.027 A 
ATOM      7  C   UNL     1      48.188  21.754  21.251  0.00  0.00    -0.066 A 
ATOM      8  C   UNL     1      49.086  20.809  21.721  0.00  0.00    +0.160 A 
ATOM     11  C   UNL     1      48.925  19.466  21.393  0.00  0.00    +0.032 A 
ATOM     14  C   UNL     1      47.866  19.082  20.584  0.00  0.00    +0.171 A 
ATOM     15  O   UNL     1      47.615  17.796  20.289  0.00  0.00    -0.252 OA
ATOM     16  C   UNL     1      48.500  16.864  19.900  0.00  0.00    +0.103 A 
ATOM     17  C   UNL     1      49.069  16.885  18.634  0.00  0.00    +0.005 A 
ATOM     18  C   UNL     1      49.795  15.798  18.185  0.00  0.00    +0.024 A 
ATOM     19  C   UNL     1      49.960  14.694  18.998  0.00  0.00    -0.068 A 
ATOM     20  C   UNL     1      49.471  14.706  20.293  0.00  0.00    +0.023 A 
ATOM     21  C   UNL     1      50.692  13.475  18.502  0.00  0.00    +0.096 C 
ATOM     22  C   UNL     1      50.487  13.317  16.990  0.00  0.00    +0.244 C 
ATOM     23  N   UNL     1      51.674  12.709  16.422  0.00  0.00    -0.569 NA
ATOM     24  C   UNL     1      52.206  13.522  15.320  0.00  0.00    +0.204 C 
ATOM     25  C   UNL     1      51.641  11.309  16.064  0.00  0.00    +0.200 C 
ATOM     26  C   UNL     1      50.668  10.496  16.917  0.00  0.00    +0.096 C 
ATOM     27  C   UNL     1      49.299  11.123  16.776  0.00  0.00    -0.024 A 
ATOM     28  C   UNL     1      48.155  10.375  16.631  0.00  0.00    -0.048 A 
ATOM     29  C   UNL     1      46.941  11.009  16.406  0.00  0.00    +0.135 A 
ATOM     32  C   UNL     1      46.891  12.396  16.303  0.00  0.00    +0.029 A 
ATOM     35  C   UNL     1      48.063  13.139  16.440  0.00  0.00    +0.133 A 
ATOM     36  O   UNL     1      48.046  14.476  16.286  0.00  0.00    -0.257 OA
ATOM     37  C   UNL     1      47.384  15.321  17.097  0.00  0.00    +0.162 A 
ATOM     38  C   UNL     1      47.341  16.661  16.719  0.00  0.00    -0.007 A 
ATOM     39  C   UNL     1      46.697  17.580  17.513  0.00  0.00    +0.008 A 
ATOM     40  C   UNL     1      46.091  17.177  18.692  0.00  0.00    -0.093 A 
ATOM     41  C   UNL     1      46.119  15.848  19.067  0.00  0.00    +0.066 A 
ATOM     42  C   UNL     1      45.408  18.214  19.547  0.00  0.00    +0.122 C 
ATOM     43  C   UNL     1      46.766  14.919  18.269  0.00  0.00    -0.031 A 
ATOM     44  C   UNL     1      49.259  12.502  16.733  0.00  0.00    -0.134 A 
ATOM     45  C   UNL     1      48.750  15.787  20.747  0.00  0.00    +0.012 A 
ATOM     46  C   UNL     1      46.987  20.047  20.084  0.00  0.00    -0.181 A 
ATOM     47  C   UNL     1      45.898  19.604  19.141  0.00  0.00    +0.229 C 
ENDROOT
BRANCH   8   9
ATOM      9  O   UNL     1      50.128  21.195  22.505  0.00  0.00    -0.295 OA
ATOM     10  C   UNL     1      51.258  21.769  21.845  0.00  0.00    +0.256 C 
ENDBRANCH   8   9
BRANCH  11  12
ATOM     12  O   UNL     1      49.801  18.537  21.863  0.00  0.00    -0.466 OA
ATOM     13  H   UNL     1      50.181  18.756  22.724  0.00  0.00    +0.391 HD
ENDBRANCH  11  12
BRANCH  29  30
ATOM     30  O   UNL     1      45.801  10.277  16.284  0.00  0.00    -0.301 OA
ATOM     31  C   UNL     1      45.153  10.293  15.012  0.00  0.00    +0.248 C 
ENDBRANCH  29  30
BRANCH  32  33
ATOM     33  O   UNL     1      45.706  13.024  16.072  0.00  0.00    -0.315 OA
ATOM     34  C   UNL     1      44.737  12.990  17.122  0.00  0.00    +0.224 C 
ENDBRANCH  32  33
TORSDOF 4
ENDMDL
