MODEL 1
REMARK VINA RESULT:      -4.8      0.000      0.000
REMARK  Name = ZINC00035525
REMARK  6 active torsions:
REMARK  status: ('A' for Active; 'I' for Inactive)
REMARK    1  A    between atoms: C1_1  and  O1_2
REMARK    2  A    between atoms: O1_2  and  C2_3
REMARK    3  A    between atoms: C7_8  and  O2_9
REMARK    4  A    between atoms: O2_9  and  C8_10
REMARK    5  A    between atoms: C11_14  and  O3_15
REMARK    6  A    between atoms: O3_15  and  C12_16
REMARK                            x       y       z     vdW  Elec       q    Type
REMARK                         _______ _______ _______ _____ _____    ______ ____
ROOT
ATOM      3  C   UNL     1      47.348  19.220  18.940  0.00  0.00    +0.142 A 
ATOM      4  C   UNL     1      47.573  20.481  19.499  0.00  0.00    -0.040 A 
ATOM      5  C   UNL     1      46.547  21.358  19.677  0.00  0.00    +0.102 A 
ATOM      6  C   UNL     1      45.244  20.997  19.296  0.00  0.00    -0.156 A 
ATOM      7  C   UNL     1      45.000  19.722  18.728  0.00  0.00    +0.207 A 
ATOM      8  N   UNL     1      43.765  19.366  18.361  0.00  0.00    -0.468 NA
ATOM      9  C   UNL     1      42.732  20.175  18.511  0.00  0.00    +0.322 A 
ATOM     10  C   UNL     1      42.901  21.460  19.070  0.00  0.00    -0.209 A 
ATOM     11  C   UNL     1      41.564  22.065  19.081  0.00  0.00    -0.028 A 
ATOM     12  C   UNL     1      40.737  21.152  18.558  0.00  0.00    +0.247 A 
ATOM     13  O   UNL     1      41.420  20.042  18.222  0.00  0.00    -0.191 OA
ATOM     14  C   UNL     1      44.164  21.887  19.471  0.00  0.00    +0.222 A 
ATOM     17  C   UNL     1      46.082  18.837  18.550  0.00  0.00    +0.062 A 
ENDROOT
BRANCH   3   2
ATOM      1  C   UNL     1      49.691  18.942  18.643  0.00  0.00    +0.246 C 
ATOM      2  O   UNL     1      48.391  18.364  18.773  0.00  0.00    -0.298 OA
ENDBRANCH   3   2
BRANCH  14  15
ATOM     15  O   UNL     1      44.349  23.117  20.010  0.00  0.00    -0.326 OA
ATOM     16  C   UNL     1      44.512  24.208  19.101  0.00  0.00    +0.248 C 
ENDBRANCH  14  15
BRANCH  17  18
ATOM     18  O   UNL     1      45.878  17.608  18.003  0.00  0.00    -0.304 OA
ATOM     19  C   UNL     1      45.706  16.515  18.908  0.00  0.00    +0.222 C 
ENDBRANCH  17  18
TORSDOF 3
ENDMDL
MODEL 2
REMARK VINA RESULT:      -4.8      2.280      5.667
REMARK  Name = ZINC00035525
REMARK  6 active torsions:
REMARK  status: ('A' for Active; 'I' for Inactive)
REMARK    1  A    between atoms: C1_1  and  O1_2
REMARK    2  A    between atoms: O1_2  and  C2_3
REMARK    3  A    between atoms: C7_8  and  O2_9
REMARK    4  A    between atoms: O2_9  and  C8_10
REMARK    5  A    between atoms: C11_14  and  O3_15
REMARK    6  A    between atoms: O3_15  and  C12_16
REMARK                            x       y       z     vdW  Elec       q    Type
REMARK                         _______ _______ _______ _____ _____    ______ ____
ROOT
ATOM      3  C   UNL     1      44.524  20.411  19.929  0.00  0.00    +0.142 A 
ATOM      4  C   UNL     1      45.262  20.540  18.750  0.00  0.00    -0.040 A 
ATOM      5  C   UNL     1      45.800  19.449  18.140  0.00  0.00    +0.102 A 
ATOM      6  C   UNL     1      45.615  18.173  18.699  0.00  0.00    -0.156 A 
ATOM      7  C   UNL     1      44.868  18.025  19.894  0.00  0.00    +0.207 A 
ATOM      8  N   UNL     1      44.684  16.818  20.436  0.00  0.00    -0.468 NA
ATOM      9  C   UNL     1      45.181  15.724  19.889  0.00  0.00    +0.322 A 
ATOM     10  C   UNL     1      45.935  15.796  18.698  0.00  0.00    -0.209 A 
ATOM     11  C   UNL     1      46.319  14.413  18.388  0.00  0.00    -0.028 A 
ATOM     12  C   UNL     1      45.798  13.656  19.361  0.00  0.00    +0.247 A 
ATOM     13  O   UNL     1      45.129  14.422  20.242  0.00  0.00    -0.191 OA
ATOM     14  C   UNL     1      46.161  17.026  18.086  0.00  0.00    +0.222 A 
ATOM     17  C   UNL     1      44.327  19.174  20.506  0.00  0.00    +0.062 A 
ENDROOT
BRANCH   3   2
ATOM      1  C   UNL     1      44.288  22.777  19.906  0.00  0.00    +0.246 C 
ATOM      2  O   UNL     1      43.997  21.518  20.517  0.00  0.00    -0.298 OA
ENDBRANCH   3   2
BRANCH  14  15
ATOM     15  O   UNL     1      46.881  17.119  16.941  0.00  0.00    -0.326 OA
ATOM     16  C   UNL     1      48.305  17.117  17.068  0.00  0.00    +0.248 C 
ENDBRANCH  14  15
BRANCH  17  18
ATOM     18  O   UNL     1      43.610  19.063  21.657  0.00  0.00    -0.304 OA
ATOM     19  C   UNL     1      42.200  18.873  21.527  0.00  0.00    +0.222 C 
ENDBRANCH  17  18
TORSDOF 3
ENDMDL
MODEL 3
REMARK VINA RESULT:      -4.6      2.404      4.080
REMARK  Name = ZINC00035525
REMARK  6 active torsions:
REMARK  status: ('A' for Active; 'I' for Inactive)
REMARK    1  A    between atoms: C1_1  and  O1_2
REMARK    2  A    between atoms: O1_2  and  C2_3
REMARK    3  A    between atoms: C7_8  and  O2_9
REMARK    4  A    between atoms: O2_9  and  C8_10
REMARK    5  A    between atoms: C11_14  and  O3_15
REMARK    6  A    between atoms: O3_15  and  C12_16
REMARK                            x       y       z     vdW  Elec       q    Type
REMARK                         _______ _______ _______ _____ _____    ______ ____
ROOT
ATOM      3  C   UNL     1      45.854  15.578  18.729  0.00  0.00    +0.142 A 
ATOM      4  C   UNL     1      45.219  15.443  19.966  0.00  0.00    -0.040 A 
ATOM      5  C   UNL     1      44.791  16.536  20.654  0.00  0.00    +0.102 A 
ATOM      6  C   UNL     1      44.986  17.821  20.119  0.00  0.00    -0.156 A 
ATOM      7  C   UNL     1      45.628  17.975  18.865  0.00  0.00    +0.207 A 
ATOM      8  N   UNL     1      45.821  19.191  18.345  0.00  0.00    -0.468 NA
ATOM      9  C   UNL     1      45.425  20.286  18.966  0.00  0.00    +0.322 A 
ATOM     10  C   UNL     1      44.779  20.208  20.219  0.00  0.00    -0.209 A 
ATOM     11  C   UNL     1      44.489  21.595  20.602  0.00  0.00    -0.028 A 
ATOM     12  C   UNL     1      44.957  22.361  19.609  0.00  0.00    +0.247 A 
ATOM     13  O   UNL     1      45.506  21.596  18.648  0.00  0.00    -0.191 OA
ATOM     14  C   UNL     1      44.551  18.969  20.812  0.00  0.00    +0.222 A 
ATOM     17  C   UNL     1      46.067  16.825  18.178  0.00  0.00    +0.062 A 
ENDROOT
BRANCH   3   2
ATOM      1  C   UNL     1      45.612  13.240  18.371  0.00  0.00    +0.246 C 
ATOM      2  O   UNL     1      46.272  14.470  18.063  0.00  0.00    -0.298 OA
ENDBRANCH   3   2
BRANCH  14  15
ATOM     15  O   UNL     1      43.931  18.870  22.014  0.00  0.00    -0.326 OA
ATOM     16  C   UNL     1      42.502  18.881  22.011  0.00  0.00    +0.248 C 
ENDBRANCH  14  15
BRANCH  17  18
ATOM     18  O   UNL     1      46.690  16.944  16.974  0.00  0.00    -0.304 OA
ATOM     19  C   UNL     1      48.115  17.043  16.989  0.00  0.00    +0.222 C 
ENDBRANCH  17  18
TORSDOF 3
ENDMDL
MODEL 4
REMARK VINA RESULT:      -4.6      2.806      3.975
REMARK  Name = ZINC00035525
REMARK  6 active torsions:
REMARK  status: ('A' for Active; 'I' for Inactive)
REMARK    1  A    between atoms: C1_1  and  O1_2
REMARK    2  A    between atoms: O1_2  and  C2_3
REMARK    3  A    between atoms: C7_8  and  O2_9
REMARK    4  A    between atoms: O2_9  and  C8_10
REMARK    5  A    between atoms: C11_14  and  O3_15
REMARK    6  A    between atoms: O3_15  and  C12_16
REMARK                            x       y       z     vdW  Elec       q    Type
REMARK                         _______ _______ _______ _____ _____    ______ ____
ROOT
ATOM      3  C   UNL     1      46.962  15.464  17.826  0.00  0.00    +0.142 A 
ATOM      4  C   UNL     1      47.023  16.652  17.093  0.00  0.00    -0.040 A 
ATOM      5  C   UNL     1      46.322  17.751  17.486  0.00  0.00    +0.102 A 
ATOM      6  C   UNL     1      45.527  17.698  18.642  0.00  0.00    -0.156 A 
ATOM      7  C   UNL     1      45.456  16.500  19.398  0.00  0.00    +0.207 A 
ATOM      8  N   UNL     1      44.703  16.435  20.500  0.00  0.00    -0.468 NA
ATOM      9  C   UNL     1      44.004  17.470  20.929  0.00  0.00    +0.322 A 
ATOM     10  C   UNL     1      44.028  18.694  20.227  0.00  0.00    -0.209 A 
ATOM     11  C   UNL     1      43.150  19.599  20.980  0.00  0.00    -0.028 A 
ATOM     12  C   UNL     1      42.689  18.892  22.019  0.00  0.00    +0.247 A 
ATOM     13  O   UNL     1      43.189  17.643  21.992  0.00  0.00    -0.191 OA
ATOM     14  C   UNL     1      44.793  18.823  19.071  0.00  0.00    +0.222 A 
ATOM     17  C   UNL     1      46.187  15.376  18.963  0.00  0.00    +0.062 A 
ENDROOT
BRANCH   3   2
ATOM      1  C   UNL     1      47.333  13.835  16.135  0.00  0.00    +0.246 C 
ATOM      2  O   UNL     1      47.671  14.381  17.411  0.00  0.00    -0.298 OA
ENDBRANCH   3   2
BRANCH  14  15
ATOM     15  O   UNL     1      44.831  19.989  18.382  0.00  0.00    -0.326 OA
ATOM     16  C   UNL     1      45.765  20.976  18.826  0.00  0.00    +0.248 C 
ENDBRANCH  14  15
BRANCH  17  18
ATOM     18  O   UNL     1      46.133  14.212  19.666  0.00  0.00    -0.304 OA
ATOM     19  C   UNL     1      45.114  13.279  19.300  0.00  0.00    +0.222 C 
ENDBRANCH  17  18
TORSDOF 3
ENDMDL
MODEL 5
REMARK VINA RESULT:      -4.6      3.427      5.875
REMARK  Name = ZINC00035525
REMARK  6 active torsions:
REMARK  status: ('A' for Active; 'I' for Inactive)
REMARK    1  A    between atoms: C1_1  and  O1_2
REMARK    2  A    between atoms: O1_2  and  C2_3
REMARK    3  A    between atoms: C7_8  and  O2_9
REMARK    4  A    between atoms: O2_9  and  C8_10
REMARK    5  A    between atoms: C11_14  and  O3_15
REMARK    6  A    between atoms: O3_15  and  C12_16
REMARK                            x       y       z     vdW  Elec       q    Type
REMARK                         _______ _______ _______ _____ _____    ______ ____
ROOT
ATOM      3  C   UNL     1      50.718  20.427  18.481  0.00  0.00    +0.142 A 
ATOM      4  C   UNL     1      49.564  20.858  19.141  0.00  0.00    -0.040 A 
ATOM      5  C   UNL     1      48.452  20.074  19.185  0.00  0.00    +0.102 A 
ATOM      6  C   UNL     1      48.457  18.815  18.561  0.00  0.00    -0.156 A 
ATOM      7  C   UNL     1      49.620  18.365  17.888  0.00  0.00    +0.207 A 
ATOM      8  N   UNL     1      49.639  17.170  17.289  0.00  0.00    -0.468 NA
ATOM      9  C   UNL     1      48.591  16.367  17.300  0.00  0.00    +0.322 A 
ATOM     10  C   UNL     1      47.399  16.751  17.952  0.00  0.00    -0.209 A 
ATOM     11  C   UNL     1      46.467  15.633  17.762  0.00  0.00    -0.028 A 
ATOM     12  C   UNL     1      47.129  14.713  17.050  0.00  0.00    +0.247 A 
ATOM     13  O   UNL     1      48.375  15.140  16.778  0.00  0.00    -0.191 OA
ATOM     14  C   UNL     1      47.319  17.984  18.593  0.00  0.00    +0.222 A 
ATOM     17  C   UNL     1      50.755  19.200  17.853  0.00  0.00    +0.062 A 
ENDROOT
BRANCH   3   2
ATOM      1  C   UNL     1      52.586  21.318  19.653  0.00  0.00    +0.246 C 
ATOM      2  O   UNL     1      51.814  21.230  18.453  0.00  0.00    -0.298 OA
ENDBRANCH   3   2
BRANCH  14  15
ATOM     15  O   UNL     1      46.184  18.373  19.225  0.00  0.00    -0.326 OA
ATOM     16  C   UNL     1      45.182  19.009  18.429  0.00  0.00    +0.248 C 
ENDBRANCH  14  15
BRANCH  17  18
ATOM     18  O   UNL     1      51.883  18.795  17.210  0.00  0.00    -0.304 OA
ATOM     19  C   UNL     1      52.041  19.210  15.852  0.00  0.00    +0.222 C 
ENDBRANCH  17  18
TORSDOF 3
ENDMDL
MODEL 6
REMARK VINA RESULT:      -4.5      2.656      6.431
REMARK  Name = ZINC00035525
REMARK  6 active torsions:
REMARK  status: ('A' for Active; 'I' for Inactive)
REMARK    1  A    between atoms: C1_1  and  O1_2
REMARK    2  A    between atoms: O1_2  and  C2_3
REMARK    3  A    between atoms: C7_8  and  O2_9
REMARK    4  A    between atoms: O2_9  and  C8_10
REMARK    5  A    between atoms: C11_14  and  O3_15
REMARK    6  A    between atoms: O3_15  and  C12_16
REMARK                            x       y       z     vdW  Elec       q    Type
REMARK                         _______ _______ _______ _____ _____    ______ ____
ROOT
ATOM      3  C   UNL     1      42.863  18.501  21.565  0.00  0.00    +0.142 A 
ATOM      4  C   UNL     1      43.097  17.245  22.131  0.00  0.00    -0.040 A 
ATOM      5  C   UNL     1      44.002  16.390  21.581  0.00  0.00    +0.102 A 
ATOM      6  C   UNL     1      44.713  16.768  20.429  0.00  0.00    -0.156 A 
ATOM      7  C   UNL     1      44.487  18.039  19.844  0.00  0.00    +0.207 A 
ATOM      8  N   UNL     1      45.155  18.411  18.748  0.00  0.00    -0.468 NA
ATOM      9  C   UNL     1      46.046  17.624  18.173  0.00  0.00    +0.322 A 
ATOM     10  C   UNL     1      46.322  16.345  18.702  0.00  0.00    -0.209 A 
ATOM     11  C   UNL     1      47.343  15.765  17.821  0.00  0.00    -0.028 A 
ATOM     12  C   UNL     1      47.590  16.685  16.880  0.00  0.00    +0.247 A 
ATOM     13  O   UNL     1      46.831  17.777  17.085  0.00  0.00    -0.191 OA
ATOM     14  C   UNL     1      45.657  15.901  19.841  0.00  0.00    +0.222 A 
ATOM     17  C   UNL     1      43.539  18.901  20.431  0.00  0.00    +0.062 A 
ENDROOT
BRANCH   3   2
ATOM      1  C   UNL     1      40.589  19.173  21.741  0.00  0.00    +0.246 C 
ATOM      2  O   UNL     1      41.953  19.335  22.134  0.00  0.00    -0.298 OA
ENDBRANCH   3   2
BRANCH  14  15
ATOM     15  O   UNL     1      45.907  14.677  20.367  0.00  0.00    -0.326 OA
ATOM     16  C   UNL     1      45.277  13.559  19.737  0.00  0.00    +0.248 C 
ENDBRANCH  14  15
BRANCH  17  18
ATOM     18  O   UNL     1      43.298  20.125  19.887  0.00  0.00    -0.304 OA
ATOM     19  C   UNL     1      42.399  20.176  18.778  0.00  0.00    +0.222 C 
ENDBRANCH  17  18
TORSDOF 3
ENDMDL
MODEL 7
REMARK VINA RESULT:      -4.4     20.572     22.237
REMARK  Name = ZINC00035525
REMARK  6 active torsions:
REMARK  status: ('A' for Active; 'I' for Inactive)
REMARK    1  A    between atoms: C1_1  and  O1_2
REMARK    2  A    between atoms: O1_2  and  C2_3
REMARK    3  A    between atoms: C7_8  and  O2_9
REMARK    4  A    between atoms: O2_9  and  C8_10
REMARK    5  A    between atoms: C11_14  and  O3_15
REMARK    6  A    between atoms: O3_15  and  C12_16
REMARK                            x       y       z     vdW  Elec       q    Type
REMARK                         _______ _______ _______ _____ _____    ______ ____
ROOT
ATOM      3  C   UNL     1      53.066  33.596   6.163  0.00  0.00    +0.142 A 
ATOM      4  C   UNL     1      54.398  33.539   6.581  0.00  0.00    -0.040 A 
ATOM      5  C   UNL     1      55.374  33.098   5.741  0.00  0.00    +0.102 A 
ATOM      6  C   UNL     1      55.045  32.694   4.436  0.00  0.00    -0.156 A 
ATOM      7  C   UNL     1      53.699  32.747   3.997  0.00  0.00    +0.207 A 
ATOM      8  N   UNL     1      53.371  32.365   2.759  0.00  0.00    -0.468 NA
ATOM      9  C   UNL     1      54.276  31.931   1.901  0.00  0.00    +0.322 A 
ATOM     10  C   UNL     1      55.636  31.852   2.269  0.00  0.00    -0.209 A 
ATOM     11  C   UNL     1      56.337  31.335   1.087  0.00  0.00    -0.028 A 
ATOM     12  C   UNL     1      55.400  31.152   0.150  0.00  0.00    +0.247 A 
ATOM     13  O   UNL     1      54.190  31.501   0.624  0.00  0.00    -0.191 OA
ATOM     14  C   UNL     1      56.038  32.235   3.546  0.00  0.00    +0.222 A 
ATOM     17  C   UNL     1      52.708  33.202   4.891  0.00  0.00    +0.062 A 
ENDROOT
BRANCH   3   2
ATOM      1  C   UNL     1      52.231  35.387   7.486  0.00  0.00    +0.246 C 
ATOM      2  O   UNL     1      52.111  34.040   7.022  0.00  0.00    -0.298 OA
ENDBRANCH   3   2
BRANCH  14  15
ATOM     15  O   UNL     1      57.339  32.168   3.921  0.00  0.00    -0.326 OA
ATOM     16  C   UNL     1      58.187  33.246   3.519  0.00  0.00    +0.248 C 
ENDBRANCH  14  15
BRANCH  17  18
ATOM     18  O   UNL     1      51.407  33.259   4.498  0.00  0.00    -0.304 OA
ATOM     19  C   UNL     1      50.966  34.472   3.886  0.00  0.00    +0.222 C 
ENDBRANCH  17  18
TORSDOF 3
ENDMDL
MODEL 8
REMARK VINA RESULT:      -4.4     20.580     21.840
REMARK  Name = ZINC00035525
REMARK  6 active torsions:
REMARK  status: ('A' for Active; 'I' for Inactive)
REMARK    1  A    between atoms: C1_1  and  O1_2
REMARK    2  A    between atoms: O1_2  and  C2_3
REMARK    3  A    between atoms: C7_8  and  O2_9
REMARK    4  A    between atoms: O2_9  and  C8_10
REMARK    5  A    between atoms: C11_14  and  O3_15
REMARK    6  A    between atoms: O3_15  and  C12_16
REMARK                            x       y       z     vdW  Elec       q    Type
REMARK                         _______ _______ _______ _____ _____    ______ ____
ROOT
ATOM      3  C   UNL     1      57.245  32.909   4.351  0.00  0.00    +0.142 A 
ATOM      4  C   UNL     1      56.979  33.327   5.657  0.00  0.00    -0.040 A 
ATOM      5  C   UNL     1      55.699  33.500   6.087  0.00  0.00    +0.102 A 
ATOM      6  C   UNL     1      54.627  33.257   5.212  0.00  0.00    -0.156 A 
ATOM      7  C   UNL     1      54.881  32.832   3.884  0.00  0.00    +0.207 A 
ATOM      8  N   UNL     1      53.871  32.598   3.041  0.00  0.00    -0.468 NA
ATOM      9  C   UNL     1      52.611  32.747   3.403  0.00  0.00    +0.322 A 
ATOM     10  C   UNL     1      52.284  33.167   4.710  0.00  0.00    -0.209 A 
ATOM     11  C   UNL     1      50.817  33.222   4.754  0.00  0.00    -0.028 A 
ATOM     12  C   UNL     1      50.395  32.854   3.538  0.00  0.00    +0.247 A 
ATOM     13  O   UNL     1      51.445  32.574   2.744  0.00  0.00    -0.191 OA
ATOM     14  C   UNL     1      53.293  33.427   5.634  0.00  0.00    +0.222 A 
ATOM     17  C   UNL     1      56.217  32.668   3.464  0.00  0.00    +0.062 A 
ENDROOT
BRANCH   3   2
ATOM      1  C   UNL     1      59.330  33.925   3.828  0.00  0.00    +0.246 C 
ATOM      2  O   UNL     1      58.532  32.745   3.947  0.00  0.00    -0.298 OA
ENDBRANCH   3   2
BRANCH  14  15
ATOM     15  O   UNL     1      53.002  33.831   6.895  0.00  0.00    -0.326 OA
ATOM     16  C   UNL     1      52.639  35.202   7.071  0.00  0.00    +0.248 C 
ENDBRANCH  14  15
BRANCH  17  18
ATOM     18  O   UNL     1      56.489  32.266   2.193  0.00  0.00    -0.304 OA
ATOM     19  C   UNL     1      56.671  33.290   1.213  0.00  0.00    +0.222 C 
ENDBRANCH  17  18
TORSDOF 3
ENDMDL
MODEL 9
REMARK VINA RESULT:      -4.4      1.673      5.363
REMARK  Name = ZINC00035525
REMARK  6 active torsions:
REMARK  status: ('A' for Active; 'I' for Inactive)
REMARK    1  A    between atoms: C1_1  and  O1_2
REMARK    2  A    between atoms: O1_2  and  C2_3
REMARK    3  A    between atoms: C7_8  and  O2_9
REMARK    4  A    between atoms: O2_9  and  C8_10
REMARK    5  A    between atoms: C11_14  and  O3_15
REMARK    6  A    between atoms: O3_15  and  C12_16
REMARK                            x       y       z     vdW  Elec       q    Type
REMARK                         _______ _______ _______ _____ _____    ______ ____
ROOT
ATOM      3  C   UNL     1      45.488  21.505  19.876  0.00  0.00    +0.142 A 
ATOM      4  C   UNL     1      46.825  21.634  20.261  0.00  0.00    -0.040 A 
ATOM      5  C   UNL     1      47.746  20.696  19.910  0.00  0.00    +0.102 A 
ATOM      6  C   UNL     1      47.355  19.581  19.150  0.00  0.00    -0.156 A 
ATOM      7  C   UNL     1      46.003  19.437  18.750  0.00  0.00    +0.207 A 
ATOM      8  N   UNL     1      45.617  18.381  18.027  0.00  0.00    -0.468 NA
ATOM      9  C   UNL     1      46.467  17.441  17.656  0.00  0.00    +0.322 A 
ATOM     10  C   UNL     1      47.829  17.520  18.018  0.00  0.00    -0.209 A 
ATOM     11  C   UNL     1      48.461  16.326  17.444  0.00  0.00    -0.028 A 
ATOM     12  C   UNL     1      47.488  15.655  16.816  0.00  0.00    +0.247 A 
ATOM     13  O   UNL     1      46.317  16.307  16.938  0.00  0.00    -0.191 OA
ATOM     14  C   UNL     1      48.290  18.596  18.771  0.00  0.00    +0.222 A 
ATOM     17  C   UNL     1      45.069  20.421  19.133  0.00  0.00    +0.062 A 
ENDROOT
BRANCH   3   2
ATOM      1  C   UNL     1      44.668  22.945  21.581  0.00  0.00    +0.246 C 
ATOM      2  O   UNL     1      44.588  22.457  20.240  0.00  0.00    -0.298 OA
ENDBRANCH   3   2
BRANCH  14  15
ATOM     15  O   UNL     1      49.594  18.693  19.130  0.00  0.00    -0.326 OA
ATOM     16  C   UNL     1      50.500  19.211  18.153  0.00  0.00    +0.248 C 
ENDBRANCH  14  15
BRANCH  17  18
ATOM     18  O   UNL     1      43.764  20.305  18.768  0.00  0.00    -0.304 OA
ATOM     19  C   UNL     1      42.887  19.656  19.691  0.00  0.00    +0.222 C 
ENDBRANCH  17  18
TORSDOF 3
ENDMDL
