MODEL 1
REMARK VINA RESULT:      -6.1      0.000      0.000
REMARK  Name = ZINC95486207
REMARK  13 active torsions:
REMARK  status: ('A' for Active; 'I' for Inactive)
REMARK    1  A    between atoms: C1_1  and  N1_2
REMARK    2  A    between atoms: C6_8  and  O6_47
REMARK    3  A    between atoms: C7_9  and  O5_46
REMARK    4  A    between atoms: C15_18  and  O4_44
REMARK    5  A    between atoms: C16_19  and  O3_42
REMARK    6  A    between atoms: C17_20  and  O1_21
REMARK    7  A    between atoms: O1_21  and  C18_22
REMARK    8  A    between atoms: C24_28  and  C27_33
REMARK    9  A    between atoms: C27_33  and  C28_34
REMARK   10  A    between atoms: C31_37  and  O2_40
REMARK   11  A    between atoms: O2_40  and  C34_41
REMARK   12  A    between atoms: O3_42  and  C35_43
REMARK   13  A    between atoms: O4_44  and  C36_45
REMARK                            x       y       z     vdW  Elec       q    Type
REMARK                         _______ _______ _______ _____ _____    ______ ____
ROOT
ATOM      1  C   UNL     1      46.218  19.362  21.536  0.00  0.00    +0.202 C 
ATOM      2  N   UNL     1      46.111  18.637  20.263  0.00  0.00    -0.514 NA
ATOM      3  C   UNL     1      46.952  19.258  19.233  0.00  0.00    +0.228 C 
ATOM      4  C   UNL     1      46.552  18.703  17.866  0.00  0.00    +0.112 C 
ATOM      5  C   UNL     1      46.536  17.196  17.909  0.00  0.00    -0.055 A 
ATOM      6  C   UNL     1      46.565  16.500  16.711  0.00  0.00    +0.002 A 
ATOM      7  C   UNL     1      46.549  15.117  16.704  0.00  0.00    +0.085 A 
ATOM     10  C   UNL     1      46.504  14.424  17.911  0.00  0.00    +0.083 A 
ATOM     13  C   UNL     1      46.476  15.124  19.103  0.00  0.00    +0.012 A 
ATOM     14  C   UNL     1      46.494  16.513  19.106  0.00  0.00    -0.060 A 
ATOM     15  C   UNL     1      48.408  18.969  19.475  0.00  0.00    -0.057 A 
ATOM     16  C   UNL     1      49.352  19.742  18.814  0.00  0.00    -0.048 A 
ATOM     17  C   UNL     1      50.705  19.514  19.001  0.00  0.00    +0.122 A 
ATOM     20  C   UNL     1      51.122  18.504  19.860  0.00  0.00    +0.064 A 
ATOM     23  C   UNL     1      50.185  17.780  20.558  0.00  0.00    +0.106 A 
ATOM     45  C   UNL     1      48.828  17.998  20.353  0.00  0.00    -0.100 A 
ATOM     46  C   UNL     1      47.841  17.134  21.096  0.00  0.00    +0.073 C 
ATOM     47  C   UNL     1      46.467  17.225  20.430  0.00  0.00    +0.230 C 
ENDROOT
BRANCH   7   8
ATOM      8  O   UNL     1      46.577  14.438  15.526  0.00  0.00    -0.487 OA
ATOM      9  H   UNL     1      47.455  14.382  15.126  0.00  0.00    +0.386 HD
ENDBRANCH   7   8
BRANCH  10  11
ATOM     11  O   UNL     1      46.487  13.065  17.917  0.00  0.00    -0.485 OA
ATOM     12  H   UNL     1      47.339  12.660  18.130  0.00  0.00    +0.385 HD
ENDBRANCH  10  11
BRANCH  17  18
ATOM     18  O   UNL     1      51.621  20.277  18.348  0.00  0.00    -0.302 OA
ATOM     19  C   UNL     1      51.693  20.132  16.928  0.00  0.00    +0.244 C 
ENDBRANCH  17  18
BRANCH  20  21
ATOM     21  O   UNL     1      52.450  18.272  20.048  0.00  0.00    -0.317 OA
ATOM     22  C   UNL     1      53.078  17.341  19.164  0.00  0.00    +0.229 C 
ENDBRANCH  20  21
BRANCH  23  24
ATOM     24  O   UNL     1      50.594  16.804  21.410  0.00  0.00    -0.250 OA
BRANCH  24  25
ATOM     25  C   UNL     1      50.216  15.526  21.145  0.00  0.00    +0.130 A 
ATOM     26  C   UNL     1      49.615  14.758  22.133  0.00  0.00    -0.056 A 
ATOM     27  C   UNL     1      49.231  13.462  21.855  0.00  0.00    +0.040 A 
ATOM     28  C   UNL     1      49.444  12.922  20.596  0.00  0.00    -0.107 A 
ATOM     29  C   UNL     1      50.044  13.681  19.613  0.00  0.00    -0.075 A 
ATOM     30  C   UNL     1      50.305  13.133  18.235  0.00  0.00    +0.232 C 
ATOM     40  N   UNL     1      49.493  11.936  17.994  0.00  0.00    -0.666 NA
ATOM     41  H   UNL     1      48.518  12.175  17.890  0.00  0.00    +0.341 HD
ATOM     42  C   UNL     1      49.684  10.963  19.082  0.00  0.00    +0.216 C 
ATOM     43  C   UNL     1      49.003  11.503  20.340  0.00  0.00    +0.039 C 
ATOM     44  C   UNL     1      50.422  14.986  19.886  0.00  0.00    -0.005 A 
BRANCH  30  31
ATOM     31  C   UNL     1      49.955  14.198  17.193  0.00  0.00    +0.085 C 
BRANCH  31  32
ATOM     32  C   UNL     1      50.265  13.673  15.815  0.00  0.00    -0.107 A 
ATOM     33  C   UNL     1      51.538  13.811  15.293  0.00  0.00    +0.047 A 
ATOM     34  C   UNL     1      51.824  13.332  14.031  0.00  0.00    -0.024 A 
ATOM     35  C   UNL     1      50.833  12.711  13.284  0.00  0.00    +0.123 A 
ATOM     38  C   UNL     1      49.556  12.573  13.809  0.00  0.00    -0.082 A 
ATOM     39  C   UNL     1      49.277  13.049  15.075  0.00  0.00    +0.067 A 
BRANCH  35  36
ATOM     36  O   UNL     1      51.112  12.238  12.041  0.00  0.00    -0.320 OA
ATOM     37  C   UNL     1      50.992  13.160  10.955  0.00  0.00    +0.237 C 
ENDBRANCH  35  36
ENDBRANCH  31  32
ENDBRANCH  30  31
ENDBRANCH  24  25
ENDBRANCH  23  24
TORSDOF 9
ENDMDL
MODEL 2
REMARK VINA RESULT:      -6.0      2.157      3.022
REMARK  Name = ZINC95486207
REMARK  13 active torsions:
REMARK  status: ('A' for Active; 'I' for Inactive)
REMARK    1  A    between atoms: C1_1  and  N1_2
REMARK    2  A    between atoms: C6_8  and  O6_47
REMARK    3  A    between atoms: C7_9  and  O5_46
REMARK    4  A    between atoms: C15_18  and  O4_44
REMARK    5  A    between atoms: C16_19  and  O3_42
REMARK    6  A    between atoms: C17_20  and  O1_21
REMARK    7  A    between atoms: O1_21  and  C18_22
REMARK    8  A    between atoms: C24_28  and  C27_33
REMARK    9  A    between atoms: C27_33  and  C28_34
REMARK   10  A    between atoms: C31_37  and  O2_40
REMARK   11  A    between atoms: O2_40  and  C34_41
REMARK   12  A    between atoms: O3_42  and  C35_43
REMARK   13  A    between atoms: O4_44  and  C36_45
REMARK                            x       y       z     vdW  Elec       q    Type
REMARK                         _______ _______ _______ _____ _____    ______ ____
ROOT
ATOM      1  C   UNL     1      44.578  18.156  21.776  0.00  0.00    +0.202 C 
ATOM      2  N   UNL     1      44.869  17.662  20.423  0.00  0.00    -0.514 NA
ATOM      3  C   UNL     1      45.838  18.529  19.743  0.00  0.00    +0.228 C 
ATOM      4  C   UNL     1      45.846  18.192  18.253  0.00  0.00    +0.112 C 
ATOM      5  C   UNL     1      46.019  16.706  18.065  0.00  0.00    -0.055 A 
ATOM      6  C   UNL     1      46.419  16.239  16.823  0.00  0.00    +0.002 A 
ATOM      7  C   UNL     1      46.589  14.883  16.606  0.00  0.00    +0.085 A 
ATOM     10  C   UNL     1      46.354  13.985  17.645  0.00  0.00    +0.083 A 
ATOM     13  C   UNL     1      45.956  14.458  18.882  0.00  0.00    +0.012 A 
ATOM     14  C   UNL     1      45.789  15.820  19.096  0.00  0.00    -0.060 A 
ATOM     15  C   UNL     1      47.222  18.336  20.300  0.00  0.00    -0.057 A 
ATOM     16  C   UNL     1      48.184  19.297  20.022  0.00  0.00    -0.048 A 
ATOM     17  C   UNL     1      49.473  19.164  20.509  0.00  0.00    +0.122 A 
ATOM     20  C   UNL     1      49.808  18.060  21.284  0.00  0.00    +0.064 A 
ATOM     23  C   UNL     1      48.837  17.142  21.607  0.00  0.00    +0.106 A 
ATOM     45  C   UNL     1      47.549  17.268  21.101  0.00  0.00    -0.100 A 
ATOM     46  C   UNL     1      46.538  16.199  21.433  0.00  0.00    +0.073 C 
ATOM     47  C   UNL     1      45.360  16.281  20.462  0.00  0.00    +0.230 C 
ENDROOT
BRANCH   7   8
ATOM      8  O   UNL     1      46.981  14.428  15.386  0.00  0.00    -0.487 OA
ATOM      9  H   UNL     1      46.250  14.224  14.788  0.00  0.00    +0.386 HD
ENDBRANCH   7   8
BRANCH  10  11
ATOM     11  O   UNL     1      46.516  12.651  17.444  0.00  0.00    -0.485 OA
ATOM     12  H   UNL     1      46.307  12.359  16.546  0.00  0.00    +0.385 HD
ENDBRANCH  10  11
BRANCH  17  18
ATOM     18  O   UNL     1      50.408  20.112  20.230  0.00  0.00    -0.302 OA
ATOM     19  C   UNL     1      50.585  21.152  21.194  0.00  0.00    +0.244 C 
ENDBRANCH  17  18
BRANCH  20  21
ATOM     21  O   UNL     1      51.073  17.921  21.766  0.00  0.00    -0.317 OA
ATOM     22  C   UNL     1      52.100  17.630  20.815  0.00  0.00    +0.229 C 
ENDBRANCH  20  21
BRANCH  23  24
ATOM     24  O   UNL     1      49.160  16.071  22.379  0.00  0.00    -0.250 OA
BRANCH  24  25
ATOM     25  C   UNL     1      49.604  14.947  21.758  0.00  0.00    +0.130 A 
ATOM     26  C   UNL     1      49.699  13.754  22.461  0.00  0.00    -0.056 A 
ATOM     27  C   UNL     1      50.147  12.617  21.823  0.00  0.00    +0.040 A 
ATOM     28  C   UNL     1      50.508  12.659  20.484  0.00  0.00    -0.107 A 
ATOM     29  C   UNL     1      50.419  13.844  19.784  0.00  0.00    -0.075 A 
ATOM     30  C   UNL     1      50.809  13.940  18.332  0.00  0.00    +0.232 C 
ATOM     40  N   UNL     1      50.864  12.606  17.724  0.00  0.00    -0.666 NA
ATOM     41  H   UNL     1      49.939  12.219  17.617  0.00  0.00    +0.341 HD
ATOM     42  C   UNL     1      51.718  11.716  18.527  0.00  0.00    +0.216 C 
ATOM     43  C   UNL     1      50.988  11.388  19.830  0.00  0.00    +0.039 C 
ATOM     44  C   UNL     1      49.959  14.986  20.420  0.00  0.00    -0.005 A 
BRANCH  30  31
ATOM     31  C   UNL     1      49.779  14.791  17.587  0.00  0.00    +0.085 C 
BRANCH  31  32
ATOM     32  C   UNL     1      50.416  16.087  17.156  0.00  0.00    -0.107 A 
ATOM     33  C   UNL     1      51.627  16.072  16.490  0.00  0.00    +0.047 A 
ATOM     34  C   UNL     1      52.213  17.258  16.093  0.00  0.00    -0.024 A 
ATOM     35  C   UNL     1      51.585  18.465  16.363  0.00  0.00    +0.123 A 
ATOM     38  C   UNL     1      50.370  18.478  17.031  0.00  0.00    -0.082 A 
ATOM     39  C   UNL     1      49.785  17.289  17.421  0.00  0.00    +0.067 A 
BRANCH  35  36
ATOM     36  O   UNL     1      52.160  19.634  15.974  0.00  0.00    -0.320 OA
ATOM     37  C   UNL     1      51.603  20.839  16.504  0.00  0.00    +0.237 C 
ENDBRANCH  35  36
ENDBRANCH  31  32
ENDBRANCH  30  31
ENDBRANCH  24  25
ENDBRANCH  23  24
TORSDOF 9
ENDMDL
MODEL 3
REMARK VINA RESULT:      -6.0      2.317      5.039
REMARK  Name = ZINC95486207
REMARK  13 active torsions:
REMARK  status: ('A' for Active; 'I' for Inactive)
REMARK    1  A    between atoms: C1_1  and  N1_2
REMARK    2  A    between atoms: C6_8  and  O6_47
REMARK    3  A    between atoms: C7_9  and  O5_46
REMARK    4  A    between atoms: C15_18  and  O4_44
REMARK    5  A    between atoms: C16_19  and  O3_42
REMARK    6  A    between atoms: C17_20  and  O1_21
REMARK    7  A    between atoms: O1_21  and  C18_22
REMARK    8  A    between atoms: C24_28  and  C27_33
REMARK    9  A    between atoms: C27_33  and  C28_34
REMARK   10  A    between atoms: C31_37  and  O2_40
REMARK   11  A    between atoms: O2_40  and  C34_41
REMARK   12  A    between atoms: O3_42  and  C35_43
REMARK   13  A    between atoms: O4_44  and  C36_45
REMARK                            x       y       z     vdW  Elec       q    Type
REMARK                         _______ _______ _______ _____ _____    ______ ____
ROOT
ATOM      1  C   UNL     1      51.309  20.614  16.049  0.00  0.00    +0.202 C 
ATOM      2  N   UNL     1      51.808  20.184  17.362  0.00  0.00    -0.514 NA
ATOM      3  C   UNL     1      50.872  20.556  18.428  0.00  0.00    +0.228 C 
ATOM      4  C   UNL     1      51.575  20.410  19.778  0.00  0.00    +0.112 C 
ATOM      5  C   UNL     1      52.210  19.047  19.880  0.00  0.00    -0.055 A 
ATOM      6  C   UNL     1      52.569  18.577  21.134  0.00  0.00    +0.002 A 
ATOM      7  C   UNL     1      53.158  17.333  21.273  0.00  0.00    +0.085 A 
ATOM     10  C   UNL     1      53.389  16.551  20.145  0.00  0.00    +0.083 A 
ATOM     13  C   UNL     1      53.028  17.025  18.897  0.00  0.00    +0.012 A 
ATOM     14  C   UNL     1      52.436  18.274  18.761  0.00  0.00    -0.060 A 
ATOM     15  C   UNL     1      49.653  19.675  18.409  0.00  0.00    -0.057 A 
ATOM     16  C   UNL     1      48.530  20.091  19.111  0.00  0.00    -0.048 A 
ATOM     17  C   UNL     1      47.383  19.315  19.127  0.00  0.00    +0.122 A 
ATOM     20  C   UNL     1      47.355  18.110  18.435  0.00  0.00    +0.064 A 
ATOM     23  C   UNL     1      48.448  17.732  17.693  0.00  0.00    +0.106 A 
ATOM     45  C   UNL     1      49.604  18.502  17.694  0.00  0.00    -0.100 A 
ATOM     46  C   UNL     1      50.797  18.011  16.915  0.00  0.00    +0.073 C 
ATOM     47  C   UNL     1      52.058  18.739  17.382  0.00  0.00    +0.230 C 
ENDROOT
BRANCH   7   8
ATOM      8  O   UNL     1      53.508  16.876  22.505  0.00  0.00    -0.487 OA
ATOM      9  H   UNL     1      53.365  15.928  22.629  0.00  0.00    +0.386 HD
ENDBRANCH   7   8
BRANCH  10  11
ATOM     11  O   UNL     1      53.967  15.327  20.269  0.00  0.00    -0.485 OA
ATOM     12  H   UNL     1      54.848  15.265  19.874  0.00  0.00    +0.385 HD
ENDBRANCH  10  11
BRANCH  17  18
ATOM     18  O   UNL     1      46.288  19.732  19.818  0.00  0.00    -0.302 OA
ATOM     19  C   UNL     1      46.315  19.566  21.237  0.00  0.00    +0.244 C 
ENDBRANCH  17  18
BRANCH  20  21
ATOM     21  O   UNL     1      46.231  17.341  18.446  0.00  0.00    -0.317 OA
ATOM     22  C   UNL     1      46.156  16.320  19.444  0.00  0.00    +0.229 C 
ENDBRANCH  20  21
BRANCH  23  24
ATOM     24  O   UNL     1      48.413  16.562  17.001  0.00  0.00    -0.250 OA
BRANCH  24  25
ATOM     25  C   UNL     1      49.210  15.546  17.425  0.00  0.00    +0.130 A 
ATOM     26  C   UNL     1      49.572  15.456  18.763  0.00  0.00    -0.056 A 
ATOM     27  C   UNL     1      50.378  14.421  19.186  0.00  0.00    +0.040 A 
ATOM     28  C   UNL     1      50.833  13.471  18.284  0.00  0.00    -0.107 A 
ATOM     29  C   UNL     1      50.480  13.560  16.953  0.00  0.00    -0.075 A 
ATOM     30  C   UNL     1      50.958  12.558  15.935  0.00  0.00    +0.232 C 
ATOM     40  N   UNL     1      51.441  11.342  16.598  0.00  0.00    -0.666 NA
ATOM     41  H   UNL     1      50.676  10.817  16.993  0.00  0.00    +0.341 HD
ATOM     42  C   UNL     1      52.434  11.684  17.629  0.00  0.00    +0.216 C 
ATOM     43  C   UNL     1      51.709  12.356  18.796  0.00  0.00    +0.039 C 
ATOM     44  C   UNL     1      49.661  14.594  16.526  0.00  0.00    -0.005 A 
BRANCH  30  31
ATOM     31  C   UNL     1      49.803  12.198  14.999  0.00  0.00    +0.085 C 
BRANCH  31  32
ATOM     32  C   UNL     1      50.293  12.194  13.574  0.00  0.00    -0.107 A 
ATOM     33  C   UNL     1      49.940  13.223  12.721  0.00  0.00    +0.047 A 
ATOM     34  C   UNL     1      50.388  13.223  11.415  0.00  0.00    -0.024 A 
ATOM     35  C   UNL     1      51.192  12.189  10.958  0.00  0.00    +0.123 A 
ATOM     38  C   UNL     1      51.545  11.157  11.816  0.00  0.00    -0.082 A 
ATOM     39  C   UNL     1      51.100  11.165  13.124  0.00  0.00    +0.067 A 
BRANCH  35  36
ATOM     36  O   UNL     1      51.633  12.185   9.673  0.00  0.00    -0.320 OA
ATOM     37  C   UNL     1      51.768  10.913   9.036  0.00  0.00    +0.237 C 
ENDBRANCH  35  36
ENDBRANCH  31  32
ENDBRANCH  30  31
ENDBRANCH  24  25
ENDBRANCH  23  24
TORSDOF 9
ENDMDL
MODEL 4
REMARK VINA RESULT:      -5.9      2.628      5.117
REMARK  Name = ZINC95486207
REMARK  13 active torsions:
REMARK  status: ('A' for Active; 'I' for Inactive)
REMARK    1  A    between atoms: C1_1  and  N1_2
REMARK    2  A    between atoms: C6_8  and  O6_47
REMARK    3  A    between atoms: C7_9  and  O5_46
REMARK    4  A    between atoms: C15_18  and  O4_44
REMARK    5  A    between atoms: C16_19  and  O3_42
REMARK    6  A    between atoms: C17_20  and  O1_21
REMARK    7  A    between atoms: O1_21  and  C18_22
REMARK    8  A    between atoms: C24_28  and  C27_33
REMARK    9  A    between atoms: C27_33  and  C28_34
REMARK   10  A    between atoms: C31_37  and  O2_40
REMARK   11  A    between atoms: O2_40  and  C34_41
REMARK   12  A    between atoms: O3_42  and  C35_43
REMARK   13  A    between atoms: O4_44  and  C36_45
REMARK                            x       y       z     vdW  Elec       q    Type
REMARK                         _______ _______ _______ _____ _____    ______ ____
ROOT
ATOM      1  C   UNL     1      49.014  19.091  20.135  0.00  0.00    +0.202 C 
ATOM      2  N   UNL     1      47.610  19.460  19.909  0.00  0.00    -0.514 NA
ATOM      3  C   UNL     1      47.148  18.993  18.597  0.00  0.00    +0.228 C 
ATOM      4  C   UNL     1      45.827  19.685  18.262  0.00  0.00    +0.112 C 
ATOM      5  C   UNL     1      44.863  19.534  19.412  0.00  0.00    -0.055 A 
ATOM      6  C   UNL     1      43.515  19.755  19.178  0.00  0.00    +0.002 A 
ATOM      7  C   UNL     1      42.597  19.630  20.205  0.00  0.00    +0.085 A 
ATOM     10  C   UNL     1      43.034  19.281  21.480  0.00  0.00    +0.083 A 
ATOM     13  C   UNL     1      44.380  19.060  21.706  0.00  0.00    +0.012 A 
ATOM     14  C   UNL     1      45.299  19.185  20.672  0.00  0.00    -0.060 A 
ATOM     15  C   UNL     1      46.939  17.503  18.595  0.00  0.00    -0.057 A 
ATOM     16  C   UNL     1      46.836  16.854  17.373  0.00  0.00    -0.048 A 
ATOM     17  C   UNL     1      46.641  15.485  17.317  0.00  0.00    +0.122 A 
ATOM     20  C   UNL     1      46.549  14.752  18.495  0.00  0.00    +0.064 A 
ATOM     23  C   UNL     1      46.711  15.390  19.701  0.00  0.00    +0.106 A 
ATOM     45  C   UNL     1      46.887  16.767  19.755  0.00  0.00    -0.100 A 
ATOM     46  C   UNL     1      46.997  17.426  21.106  0.00  0.00    +0.073 C 
ATOM     47  C   UNL     1      46.750  18.929  20.972  0.00  0.00    +0.230 C 
ENDROOT
BRANCH   7   8
ATOM      8  O   UNL     1      41.275  19.848  19.971  0.00  0.00    -0.487 OA
ATOM      9  H   UNL     1      41.062  20.015  19.043  0.00  0.00    +0.386 HD
ENDBRANCH   7   8
BRANCH  10  11
ATOM     11  O   UNL     1      42.141  19.156  22.497  0.00  0.00    -0.485 OA
ATOM     12  H   UNL     1      42.461  19.492  23.346  0.00  0.00    +0.385 HD
ENDBRANCH  10  11
BRANCH  17  18
ATOM     18  O   UNL     1      46.541  14.859  16.114  0.00  0.00    -0.302 OA
ATOM     19  C   UNL     1      47.564  13.917  15.786  0.00  0.00    +0.244 C 
ENDBRANCH  17  18
BRANCH  20  21
ATOM     21  O   UNL     1      46.355  13.405  18.449  0.00  0.00    -0.317 OA
ATOM     22  C   UNL     1      45.003  12.946  18.405  0.00  0.00    +0.229 C 
ENDBRANCH  20  21
BRANCH  23  24
ATOM     24  O   UNL     1      46.638  14.670  20.852  0.00  0.00    -0.250 OA
BRANCH  24  25
ATOM     25  C   UNL     1      47.712  13.915  21.202  0.00  0.00    +0.130 A 
ATOM     26  C   UNL     1      47.579  12.915  22.156  0.00  0.00    -0.056 A 
ATOM     27  C   UNL     1      48.673  12.150  22.503  0.00  0.00    +0.040 A 
ATOM     28  C   UNL     1      49.905  12.376  21.907  0.00  0.00    -0.107 A 
ATOM     29  C   UNL     1      50.041  13.371  20.961  0.00  0.00    -0.075 A 
ATOM     30  C   UNL     1      51.361  13.659  20.295  0.00  0.00    +0.232 C 
ATOM     40  N   UNL     1      52.281  12.530  20.466  0.00  0.00    -0.666 NA
ATOM     41  H   UNL     1      51.990  11.739  19.910  0.00  0.00    +0.341 HD
ATOM     42  C   UNL     1      52.383  12.166  21.888  0.00  0.00    +0.216 C 
ATOM     43  C   UNL     1      51.070  11.510  22.316  0.00  0.00    +0.039 C 
ATOM     44  C   UNL     1      48.941  14.135  20.603  0.00  0.00    -0.005 A 
BRANCH  30  31
ATOM     31  C   UNL     1      51.131  13.902  18.802  0.00  0.00    +0.085 C 
BRANCH  31  32
ATOM     32  C   UNL     1      51.418  15.346  18.478  0.00  0.00    -0.107 A 
ATOM     33  C   UNL     1      52.460  16.000  19.108  0.00  0.00    +0.047 A 
ATOM     34  C   UNL     1      52.725  17.323  18.813  0.00  0.00    -0.024 A 
ATOM     35  C   UNL     1      51.945  17.995  17.884  0.00  0.00    +0.123 A 
ATOM     38  C   UNL     1      50.899  17.337  17.253  0.00  0.00    -0.082 A 
ATOM     39  C   UNL     1      50.643  16.012  17.547  0.00  0.00    +0.067 A 
BRANCH  35  36
ATOM     36  O   UNL     1      52.203  19.298  17.593  0.00  0.00    -0.320 OA
ATOM     37  C   UNL     1      51.954  19.724  16.251  0.00  0.00    +0.237 C 
ENDBRANCH  35  36
ENDBRANCH  31  32
ENDBRANCH  30  31
ENDBRANCH  24  25
ENDBRANCH  23  24
TORSDOF 9
ENDMDL
MODEL 5
REMARK VINA RESULT:      -5.9      2.940      7.592
REMARK  Name = ZINC95486207
REMARK  13 active torsions:
REMARK  status: ('A' for Active; 'I' for Inactive)
REMARK    1  A    between atoms: C1_1  and  N1_2
REMARK    2  A    between atoms: C6_8  and  O6_47
REMARK    3  A    between atoms: C7_9  and  O5_46
REMARK    4  A    between atoms: C15_18  and  O4_44
REMARK    5  A    between atoms: C16_19  and  O3_42
REMARK    6  A    between atoms: C17_20  and  O1_21
REMARK    7  A    between atoms: O1_21  and  C18_22
REMARK    8  A    between atoms: C24_28  and  C27_33
REMARK    9  A    between atoms: C27_33  and  C28_34
REMARK   10  A    between atoms: C31_37  and  O2_40
REMARK   11  A    between atoms: O2_40  and  C34_41
REMARK   12  A    between atoms: O3_42  and  C35_43
REMARK   13  A    between atoms: O4_44  and  C36_45
REMARK                            x       y       z     vdW  Elec       q    Type
REMARK                         _______ _______ _______ _____ _____    ______ ____
ROOT
ATOM      1  C   UNL     1      49.646  13.322  15.807  0.00  0.00    +0.202 C 
ATOM      2  N   UNL     1      49.003  13.113  17.111  0.00  0.00    -0.514 NA
ATOM      3  C   UNL     1      49.986  13.173  18.198  0.00  0.00    +0.228 C 
ATOM      4  C   UNL     1      49.353  12.614  19.472  0.00  0.00    +0.112 C 
ATOM      5  C   UNL     1      48.026  13.286  19.721  0.00  0.00    -0.055 A 
ATOM      6  C   UNL     1      47.471  13.203  20.988  0.00  0.00    +0.002 A 
ATOM      7  C   UNL     1      46.255  13.802  21.261  0.00  0.00    +0.085 A 
ATOM     10  C   UNL     1      45.587  14.493  20.252  0.00  0.00    +0.083 A 
ATOM     13  C   UNL     1      46.147  14.573  18.990  0.00  0.00    +0.012 A 
ATOM     14  C   UNL     1      47.369  13.971  18.722  0.00  0.00    -0.060 A 
ATOM     15  C   UNL     1      50.431  14.588  18.448  0.00  0.00    -0.057 A 
ATOM     16  C   UNL     1      51.586  14.794  19.190  0.00  0.00    -0.048 A 
ATOM     17  C   UNL     1      52.036  16.077  19.450  0.00  0.00    +0.122 A 
ATOM     20  C   UNL     1      51.327  17.169  18.964  0.00  0.00    +0.064 A 
ATOM     23  C   UNL     1      50.218  16.960  18.180  0.00  0.00    +0.106 A 
ATOM     45  C   UNL     1      49.757  15.671  17.937  0.00  0.00    -0.100 A 
ATOM     46  C   UNL     1      48.499  15.498  17.124  0.00  0.00    +0.073 C 
ATOM     47  C   UNL     1      47.935  14.093  17.334  0.00  0.00    +0.230 C 
ENDROOT
BRANCH   7   8
ATOM      8  O   UNL     1      45.713  13.718  22.505  0.00  0.00    -0.487 OA
ATOM      9  H   UNL     1      46.196  14.216  23.179  0.00  0.00    +0.386 HD
ENDBRANCH   7   8
BRANCH  10  11
ATOM     11  O   UNL     1      44.390  15.085  20.507  0.00  0.00    -0.485 OA
ATOM     12  H   UNL     1      43.898  15.337  19.714  0.00  0.00    +0.385 HD
ENDBRANCH  10  11
BRANCH  17  18
ATOM     18  O   UNL     1      53.169  16.268  20.178  0.00  0.00    -0.302 OA
ATOM     19  C   UNL     1      54.411  15.982  19.532  0.00  0.00    +0.244 C 
ENDBRANCH  17  18
BRANCH  20  21
ATOM     21  O   UNL     1      51.761  18.435  19.217  0.00  0.00    -0.317 OA
ATOM     22  C   UNL     1      52.652  19.016  18.262  0.00  0.00    +0.229 C 
ENDBRANCH  20  21
BRANCH  23  24
ATOM     24  O   UNL     1      49.534  18.028  17.691  0.00  0.00    -0.250 OA
BRANCH  24  25
ATOM     25  C   UNL     1      48.946  18.871  18.579  0.00  0.00    +0.130 A 
ATOM     26  C   UNL     1      49.445  20.154  18.757  0.00  0.00    -0.056 A 
ATOM     27  C   UNL     1      48.840  21.005  19.659  0.00  0.00    +0.040 A 
ATOM     28  C   UNL     1      47.740  20.585  20.391  0.00  0.00    -0.107 A 
ATOM     29  C   UNL     1      47.244  19.310  20.219  0.00  0.00    -0.075 A 
ATOM     30  C   UNL     1      46.057  18.807  20.999  0.00  0.00    +0.232 C 
ATOM     40  N   UNL     1      45.312  19.928  21.582  0.00  0.00    -0.666 NA
ATOM     41  H   UNL     1      44.826  20.449  20.868  0.00  0.00    +0.341 HD
ATOM     42  C   UNL     1      46.218  20.800  22.346  0.00  0.00    +0.216 C 
ATOM     43  C   UNL     1      47.112  21.554  21.360  0.00  0.00    +0.039 C 
ATOM     44  C   UNL     1      47.843  18.455  19.307  0.00  0.00    -0.005 A 
BRANCH  30  31
ATOM     31  C   UNL     1      45.136  18.019  20.066  0.00  0.00    +0.085 C 
BRANCH  31  32
ATOM     32  C   UNL     1      43.823  18.745  19.926  0.00  0.00    -0.107 A 
ATOM     33  C   UNL     1      43.653  19.677  18.920  0.00  0.00    +0.047 A 
ATOM     34  C   UNL     1      42.451  20.344  18.789  0.00  0.00    -0.024 A 
ATOM     35  C   UNL     1      41.412  20.077  19.669  0.00  0.00    +0.123 A 
ATOM     38  C   UNL     1      41.584  19.141  20.679  0.00  0.00    -0.082 A 
ATOM     39  C   UNL     1      42.787  18.473  20.801  0.00  0.00    +0.067 A 
BRANCH  35  36
ATOM     36  O   UNL     1      40.228  20.733  19.543  0.00  0.00    -0.320 OA
ATOM     37  C   UNL     1      40.107  21.652  18.456  0.00  0.00    +0.237 C 
ENDBRANCH  35  36
ENDBRANCH  31  32
ENDBRANCH  30  31
ENDBRANCH  24  25
ENDBRANCH  23  24
TORSDOF 9
ENDMDL
MODEL 6
REMARK VINA RESULT:      -5.9      2.735      6.001
REMARK  Name = ZINC95486207
REMARK  13 active torsions:
REMARK  status: ('A' for Active; 'I' for Inactive)
REMARK    1  A    between atoms: C1_1  and  N1_2
REMARK    2  A    between atoms: C6_8  and  O6_47
REMARK    3  A    between atoms: C7_9  and  O5_46
REMARK    4  A    between atoms: C15_18  and  O4_44
REMARK    5  A    between atoms: C16_19  and  O3_42
REMARK    6  A    between atoms: C17_20  and  O1_21
REMARK    7  A    between atoms: O1_21  and  C18_22
REMARK    8  A    between atoms: C24_28  and  C27_33
REMARK    9  A    between atoms: C27_33  and  C28_34
REMARK   10  A    between atoms: C31_37  and  O2_40
REMARK   11  A    between atoms: O2_40  and  C34_41
REMARK   12  A    between atoms: O3_42  and  C35_43
REMARK   13  A    between atoms: O4_44  and  C36_45
REMARK                            x       y       z     vdW  Elec       q    Type
REMARK                         _______ _______ _______ _____ _____    ______ ____
ROOT
ATOM      1  C   UNL     1      45.427  21.856  19.132  0.00  0.00    +0.202 C 
ATOM      2  N   UNL     1      46.702  21.531  19.785  0.00  0.00    -0.514 NA
ATOM      3  C   UNL     1      46.487  20.698  20.973  0.00  0.00    +0.228 C 
ATOM      4  C   UNL     1      47.770  20.677  21.804  0.00  0.00    +0.112 C 
ATOM      5  C   UNL     1      48.941  20.315  20.927  0.00  0.00    -0.055 A 
ATOM      6  C   UNL     1      50.111  19.883  21.532  0.00  0.00    +0.002 A 
ATOM      7  C   UNL     1      51.212  19.543  20.765  0.00  0.00    +0.085 A 
ATOM     10  C   UNL     1      51.139  19.637  19.378  0.00  0.00    +0.083 A 
ATOM     13  C   UNL     1      49.969  20.068  18.780  0.00  0.00    +0.012 A 
ATOM     14  C   UNL     1      48.866  20.406  19.553  0.00  0.00    -0.060 A 
ATOM     15  C   UNL     1      46.125  19.289  20.589  0.00  0.00    -0.057 A 
ATOM     16  C   UNL     1      45.563  18.466  21.555  0.00  0.00    -0.048 A 
ATOM     17  C   UNL     1      45.214  17.161  21.251  0.00  0.00    +0.122 A 
ATOM     20  C   UNL     1      45.428  16.670  19.969  0.00  0.00    +0.064 A 
ATOM     23  C   UNL     1      45.930  17.506  19.000  0.00  0.00    +0.106 A 
ATOM     45  C   UNL     1      46.297  18.809  19.312  0.00  0.00    -0.100 A 
ATOM     46  C   UNL     1      46.901  19.665  18.228  0.00  0.00    +0.073 C 
ATOM     47  C   UNL     1      47.616  20.864  18.853  0.00  0.00    +0.230 C 
ENDROOT
BRANCH   7   8
ATOM      8  O   UNL     1      52.358  19.120  21.363  0.00  0.00    -0.487 OA
ATOM      9  H   UNL     1      52.622  18.224  21.117  0.00  0.00    +0.386 HD
ENDBRANCH   7   8
BRANCH  10  11
ATOM     11  O   UNL     1      52.214  19.307  18.614  0.00  0.00    -0.485 OA
ATOM     12  H   UNL     1      52.516  18.396  18.731  0.00  0.00    +0.385 HD
ENDBRANCH  10  11
BRANCH  17  18
ATOM     18  O   UNL     1      44.664  16.364  22.206  0.00  0.00    -0.302 OA
ATOM     19  C   UNL     1      43.282  16.570  22.505  0.00  0.00    +0.244 C 
ENDBRANCH  17  18
BRANCH  20  21
ATOM     21  O   UNL     1      45.090  15.387  19.663  0.00  0.00    -0.317 OA
ATOM     22  C   UNL     1      45.822  14.350  20.320  0.00  0.00    +0.229 C 
ENDBRANCH  20  21
BRANCH  23  24
ATOM     24  O   UNL     1      46.123  17.030  17.742  0.00  0.00    -0.250 OA
BRANCH  24  25
ATOM     25  C   UNL     1      47.287  16.381  17.477  0.00  0.00    +0.130 A 
ATOM     26  C   UNL     1      48.485  17.083  17.448  0.00  0.00    -0.056 A 
ATOM     27  C   UNL     1      49.663  16.417  17.181  0.00  0.00    +0.040 A 
ATOM     28  C   UNL     1      49.658  15.051  16.938  0.00  0.00    -0.107 A 
ATOM     29  C   UNL     1      48.469  14.352  16.962  0.00  0.00    -0.075 A 
ATOM     30  C   UNL     1      48.414  12.871  16.695  0.00  0.00    +0.232 C 
ATOM     40  N   UNL     1      49.745  12.272  16.835  0.00  0.00    -0.666 NA
ATOM     41  H   UNL     1      50.031  12.250  17.803  0.00  0.00    +0.341 HD
ATOM     42  C   UNL     1      50.722  13.003  16.013  0.00  0.00    +0.216 C 
ATOM     43  C   UNL     1      50.972  14.368  16.655  0.00  0.00    +0.039 C 
ATOM     44  C   UNL     1      47.285  15.016  17.240  0.00  0.00    -0.005 A 
BRANCH  30  31
ATOM     31  C   UNL     1      47.457  12.213  17.690  0.00  0.00    +0.085 C 
BRANCH  31  32
ATOM     32  C   UNL     1      46.246  11.695  16.957  0.00  0.00    -0.107 A 
ATOM     33  C   UNL     1      44.987  12.162  17.287  0.00  0.00    +0.047 A 
ATOM     34  C   UNL     1      43.876  11.689  16.617  0.00  0.00    -0.024 A 
ATOM     35  C   UNL     1      44.024  10.744  15.612  0.00  0.00    +0.123 A 
ATOM     38  C   UNL     1      45.288  10.277  15.282  0.00  0.00    -0.082 A 
ATOM     39  C   UNL     1      46.396  10.757  15.952  0.00  0.00    +0.067 A 
BRANCH  35  36
ATOM     36  O   UNL     1      42.932  10.277  14.952  0.00  0.00    -0.320 OA
ATOM     37  C   UNL     1      41.655  10.730  15.406  0.00  0.00    +0.237 C 
ENDBRANCH  35  36
ENDBRANCH  31  32
ENDBRANCH  30  31
ENDBRANCH  24  25
ENDBRANCH  23  24
TORSDOF 9
ENDMDL
MODEL 7
REMARK VINA RESULT:      -5.8      2.668      7.410
REMARK  Name = ZINC95486207
REMARK  13 active torsions:
REMARK  status: ('A' for Active; 'I' for Inactive)
REMARK    1  A    between atoms: C1_1  and  N1_2
REMARK    2  A    between atoms: C6_8  and  O6_47
REMARK    3  A    between atoms: C7_9  and  O5_46
REMARK    4  A    between atoms: C15_18  and  O4_44
REMARK    5  A    between atoms: C16_19  and  O3_42
REMARK    6  A    between atoms: C17_20  and  O1_21
REMARK    7  A    between atoms: O1_21  and  C18_22
REMARK    8  A    between atoms: C24_28  and  C27_33
REMARK    9  A    between atoms: C27_33  and  C28_34
REMARK   10  A    between atoms: C31_37  and  O2_40
REMARK   11  A    between atoms: O2_40  and  C34_41
REMARK   12  A    between atoms: O3_42  and  C35_43
REMARK   13  A    between atoms: O4_44  and  C36_45
REMARK                            x       y       z     vdW  Elec       q    Type
REMARK                         _______ _______ _______ _____ _____    ______ ____
ROOT
ATOM      1  C   UNL     1      48.126  11.466  16.954  0.00  0.00    +0.202 C 
ATOM      2  N   UNL     1      47.432  12.475  17.766  0.00  0.00    -0.514 NA
ATOM      3  C   UNL     1      48.070  12.625  19.077  0.00  0.00    +0.228 C 
ATOM      4  C   UNL     1      47.133  13.405  19.999  0.00  0.00    +0.112 C 
ATOM      5  C   UNL     1      46.681  14.671  19.317  0.00  0.00    -0.055 A 
ATOM      6  C   UNL     1      46.140  15.684  20.094  0.00  0.00    +0.002 A 
ATOM      7  C   UNL     1      45.711  16.862  19.510  0.00  0.00    +0.085 A 
ATOM     10  C   UNL     1      45.823  17.027  18.131  0.00  0.00    +0.083 A 
ATOM     13  C   UNL     1      46.365  16.013  17.362  0.00  0.00    +0.012 A 
ATOM     14  C   UNL     1      46.797  14.833  17.953  0.00  0.00    -0.060 A 
ATOM     15  C   UNL     1      49.376  13.363  18.963  0.00  0.00    -0.057 A 
ATOM     16  C   UNL     1      50.265  13.299  20.027  0.00  0.00    -0.048 A 
ATOM     17  C   UNL     1      51.478  13.963  19.971  0.00  0.00    +0.122 A 
ATOM     20  C   UNL     1      51.811  14.699  18.841  0.00  0.00    +0.064 A 
ATOM     23  C   UNL     1      50.955  14.711  17.766  0.00  0.00    +0.106 A 
ATOM     45  C   UNL     1      49.729  14.060  17.832  0.00  0.00    -0.100 A 
ATOM     46  C   UNL     1      48.798  14.157  16.649  0.00  0.00    +0.073 C 
ATOM     47  C   UNL     1      47.382  13.765  17.071  0.00  0.00    +0.230 C 
ENDROOT
BRANCH   7   8
ATOM      8  O   UNL     1      45.181  17.852  20.276  0.00  0.00    -0.487 OA
ATOM      9  H   UNL     1      44.640  17.535  21.011  0.00  0.00    +0.386 HD
ENDBRANCH   7   8
BRANCH  10  11
ATOM     11  O   UNL     1      45.403  18.179  17.546  0.00  0.00    -0.485 OA
ATOM     12  H   UNL     1      45.251  18.104  16.593  0.00  0.00    +0.385 HD
ENDBRANCH  10  11
BRANCH  17  18
ATOM     18  O   UNL     1      52.342  13.894  21.020  0.00  0.00    -0.302 OA
ATOM     19  C   UNL     1      53.141  12.714  21.125  0.00  0.00    +0.244 C 
ENDBRANCH  17  18
BRANCH  20  21
ATOM     21  O   UNL     1      53.002  15.357  18.779  0.00  0.00    -0.317 OA
ATOM     22  C   UNL     1      53.246  16.351  19.775  0.00  0.00    +0.229 C 
ENDBRANCH  20  21
BRANCH  23  24
ATOM     24  O   UNL     1      51.288  15.418  16.653  0.00  0.00    -0.250 OA
BRANCH  24  25
ATOM     25  C   UNL     1      51.348  16.772  16.751  0.00  0.00    +0.130 A 
ATOM     26  C   UNL     1      52.003  17.512  15.776  0.00  0.00    -0.056 A 
ATOM     27  C   UNL     1      52.057  18.886  15.881  0.00  0.00    +0.040 A 
ATOM     28  C   UNL     1      51.465  19.532  16.956  0.00  0.00    -0.107 A 
ATOM     29  C   UNL     1      50.817  18.799  17.929  0.00  0.00    -0.075 A 
ATOM     30  C   UNL     1      50.168  19.456  19.119  0.00  0.00    +0.232 C 
ATOM     40  N   UNL     1      49.966  20.887  18.870  0.00  0.00    -0.666 NA
ATOM     41  H   UNL     1      49.238  21.036  18.188  0.00  0.00    +0.341 HD
ATOM     42  C   UNL     1      51.226  21.513  18.441  0.00  0.00    +0.216 C 
ATOM     43  C   UNL     1      51.547  21.036  17.024  0.00  0.00    +0.039 C 
ATOM     44  C   UNL     1      50.752  17.419  17.821  0.00  0.00    -0.005 A 
BRANCH  30  31
ATOM     31  C   UNL     1      48.815  18.794  19.387  0.00  0.00    +0.085 C 
BRANCH  31  32
ATOM     32  C   UNL     1      47.810  19.846  19.780  0.00  0.00    -0.107 A 
ATOM     33  C   UNL     1      47.684  20.218  21.106  0.00  0.00    +0.047 A 
ATOM     34  C   UNL     1      46.764  21.181  21.470  0.00  0.00    -0.024 A 
ATOM     35  C   UNL     1      45.965  21.775  20.504  0.00  0.00    +0.123 A 
ATOM     38  C   UNL     1      46.093  21.401  19.174  0.00  0.00    -0.082 A 
ATOM     39  C   UNL     1      47.019  20.441  18.815  0.00  0.00    +0.067 A 
BRANCH  35  36
ATOM     36  O   UNL     1      45.058  22.723  20.859  0.00  0.00    -0.320 OA
ATOM     37  C   UNL     1      43.986  22.969  19.946  0.00  0.00    +0.237 C 
ENDBRANCH  35  36
ENDBRANCH  31  32
ENDBRANCH  30  31
ENDBRANCH  24  25
ENDBRANCH  23  24
TORSDOF 9
ENDMDL
MODEL 8
REMARK VINA RESULT:      -5.4      2.462      4.834
REMARK  Name = ZINC95486207
REMARK  13 active torsions:
REMARK  status: ('A' for Active; 'I' for Inactive)
REMARK    1  A    between atoms: C1_1  and  N1_2
REMARK    2  A    between atoms: C6_8  and  O6_47
REMARK    3  A    between atoms: C7_9  and  O5_46
REMARK    4  A    between atoms: C15_18  and  O4_44
REMARK    5  A    between atoms: C16_19  and  O3_42
REMARK    6  A    between atoms: C17_20  and  O1_21
REMARK    7  A    between atoms: O1_21  and  C18_22
REMARK    8  A    between atoms: C24_28  and  C27_33
REMARK    9  A    between atoms: C27_33  and  C28_34
REMARK   10  A    between atoms: C31_37  and  O2_40
REMARK   11  A    between atoms: O2_40  and  C34_41
REMARK   12  A    between atoms: O3_42  and  C35_43
REMARK   13  A    between atoms: O4_44  and  C36_45
REMARK                            x       y       z     vdW  Elec       q    Type
REMARK                         _______ _______ _______ _____ _____    ______ ____
ROOT
ATOM      1  C   UNL     1      51.102  20.798  17.372  0.00  0.00    +0.202 C 
ATOM      2  N   UNL     1      51.412  19.826  18.429  0.00  0.00    -0.514 NA
ATOM      3  C   UNL     1      51.019  20.337  19.746  0.00  0.00    +0.228 C 
ATOM      4  C   UNL     1      51.663  19.470  20.827  0.00  0.00    +0.112 C 
ATOM      5  C   UNL     1      51.379  18.015  20.554  0.00  0.00    -0.055 A 
ATOM      6  C   UNL     1      51.546  17.104  21.585  0.00  0.00    +0.002 A 
ATOM      7  C   UNL     1      51.299  15.759  21.378  0.00  0.00    +0.085 A 
ATOM     10  C   UNL     1      50.880  15.322  20.124  0.00  0.00    +0.083 A 
ATOM     13  C   UNL     1      50.714  16.236  19.099  0.00  0.00    +0.012 A 
ATOM     14  C   UNL     1      50.962  17.586  19.312  0.00  0.00    -0.060 A 
ATOM     15  C   UNL     1      49.525  20.307  19.915  0.00  0.00    -0.057 A 
ATOM     16  C   UNL     1      48.962  21.055  20.940  0.00  0.00    -0.048 A 
ATOM     17  C   UNL     1      47.592  21.058  21.139  0.00  0.00    +0.122 A 
ATOM     20  C   UNL     1      46.772  20.308  20.305  0.00  0.00    +0.064 A 
ATOM     23  C   UNL     1      47.327  19.616  19.255  0.00  0.00    +0.106 A 
ATOM     45  C   UNL     1      48.704  19.599  19.069  0.00  0.00    -0.100 A 
ATOM     46  C   UNL     1      49.267  18.774  17.941  0.00  0.00    +0.073 C 
ATOM     47  C   UNL     1      50.761  18.538  18.166  0.00  0.00    +0.230 C 
ENDROOT
BRANCH   7   8
ATOM      8  O   UNL     1      51.464  14.868  22.392  0.00  0.00    -0.487 OA
ATOM      9  H   UNL     1      50.876  14.103  22.343  0.00  0.00    +0.386 HD
ENDBRANCH   7   8
BRANCH  10  11
ATOM     11  O   UNL     1      50.635  14.002  19.907  0.00  0.00    -0.485 OA
ATOM     12  H   UNL     1      49.722  13.737  20.082  0.00  0.00    +0.385 HD
ENDBRANCH  10  11
BRANCH  17  18
ATOM     18  O   UNL     1      47.051  21.794  22.147  0.00  0.00    -0.302 OA
ATOM     19  C   UNL     1      47.023  23.212  21.971  0.00  0.00    +0.244 C 
ENDBRANCH  17  18
BRANCH  20  21
ATOM     21  O   UNL     1      45.423  20.304  20.495  0.00  0.00    -0.317 OA
ATOM     22  C   UNL     1      44.665  21.273  19.768  0.00  0.00    +0.229 C 
ENDBRANCH  20  21
BRANCH  23  24
ATOM     24  O   UNL     1      46.522  18.896  18.429  0.00  0.00    -0.250 OA
BRANCH  24  25
ATOM     25  C   UNL     1      46.227  17.618  18.782  0.00  0.00    +0.130 A 
ATOM     26  C   UNL     1      45.231  17.365  19.715  0.00  0.00    -0.056 A 
ATOM     27  C   UNL     1      44.935  16.064  20.065  0.00  0.00    +0.040 A 
ATOM     28  C   UNL     1      45.628  15.008  19.493  0.00  0.00    -0.107 A 
ATOM     29  C   UNL     1      46.621  15.255  18.568  0.00  0.00    -0.075 A 
ATOM     30  C   UNL     1      47.407  14.142  17.928  0.00  0.00    +0.232 C 
ATOM     40  N   UNL     1      46.712  12.861  18.092  0.00  0.00    -0.666 NA
ATOM     41  H   UNL     1      45.883  12.823  17.518  0.00  0.00    +0.341 HD
ATOM     42  C   UNL     1      46.382  12.638  19.509  0.00  0.00    +0.216 C 
ATOM     43  C   UNL     1      45.264  13.604  19.905  0.00  0.00    +0.039 C 
ATOM     44  C   UNL     1      46.914  16.561  18.206  0.00  0.00    -0.005 A 
BRANCH  30  31
ATOM     31  C   UNL     1      47.578  14.435  16.436  0.00  0.00    +0.085 C 
BRANCH  31  32
ATOM     32  C   UNL     1      48.692  13.586  15.881  0.00  0.00    -0.107 A 
ATOM     33  C   UNL     1      49.973  13.713  16.385  0.00  0.00    +0.047 A 
ATOM     34  C   UNL     1      50.996  12.936  15.878  0.00  0.00    -0.024 A 
ATOM     35  C   UNL     1      50.737  12.028  14.862  0.00  0.00    +0.123 A 
ATOM     38  C   UNL     1      49.451  11.901  14.358  0.00  0.00    -0.082 A 
ATOM     39  C   UNL     1      48.430  12.677  14.873  0.00  0.00    +0.067 A 
BRANCH  35  36
ATOM     36  O   UNL     1      51.742  11.262  14.360  0.00  0.00    -0.320 OA
ATOM     37  C   UNL     1      52.803  10.918  15.254  0.00  0.00    +0.237 C 
ENDBRANCH  35  36
ENDBRANCH  31  32
ENDBRANCH  30  31
ENDBRANCH  24  25
ENDBRANCH  23  24
TORSDOF 9
ENDMDL
MODEL 9
REMARK VINA RESULT:      -5.3      2.415      7.210
REMARK  Name = ZINC95486207
REMARK  13 active torsions:
REMARK  status: ('A' for Active; 'I' for Inactive)
REMARK    1  A    between atoms: C1_1  and  N1_2
REMARK    2  A    between atoms: C6_8  and  O6_47
REMARK    3  A    between atoms: C7_9  and  O5_46
REMARK    4  A    between atoms: C15_18  and  O4_44
REMARK    5  A    between atoms: C16_19  and  O3_42
REMARK    6  A    between atoms: C17_20  and  O1_21
REMARK    7  A    between atoms: O1_21  and  C18_22
REMARK    8  A    between atoms: C24_28  and  C27_33
REMARK    9  A    between atoms: C27_33  and  C28_34
REMARK   10  A    between atoms: C31_37  and  O2_40
REMARK   11  A    between atoms: O2_40  and  C34_41
REMARK   12  A    between atoms: O3_42  and  C35_43
REMARK   13  A    between atoms: O4_44  and  C36_45
REMARK                            x       y       z     vdW  Elec       q    Type
REMARK                         _______ _______ _______ _____ _____    ______ ____
ROOT
ATOM      1  C   UNL     1      50.989  12.065  15.655  0.00  0.00    +0.202 C 
ATOM      2  N   UNL     1      49.782  12.401  16.423  0.00  0.00    -0.514 NA
ATOM      3  C   UNL     1      49.966  12.107  17.848  0.00  0.00    +0.228 C 
ATOM      4  C   UNL     1      48.604  12.137  18.541  0.00  0.00    +0.112 C 
ATOM      5  C   UNL     1      47.884  13.417  18.201  0.00  0.00    -0.055 A 
ATOM      6  C   UNL     1      46.821  13.810  18.999  0.00  0.00    +0.002 A 
ATOM      7  C   UNL     1      46.131  14.976  18.722  0.00  0.00    +0.085 A 
ATOM     10  C   UNL     1      46.510  15.758  17.634  0.00  0.00    +0.083 A 
ATOM     13  C   UNL     1      47.572  15.361  16.842  0.00  0.00    +0.012 A 
ATOM     14  C   UNL     1      48.263  14.190  17.124  0.00  0.00    -0.060 A 
ATOM     15  C   UNL     1      50.871  13.119  18.497  0.00  0.00    -0.057 A 
ATOM     16  C   UNL     1      51.422  12.813  19.734  0.00  0.00    -0.048 A 
ATOM     17  C   UNL     1      52.259  13.711  20.373  0.00  0.00    +0.122 A 
ATOM     20  C   UNL     1      52.552  14.929  19.772  0.00  0.00    +0.064 A 
ATOM     23  C   UNL     1      52.053  15.203  18.521  0.00  0.00    +0.106 A 
ATOM     45  C   UNL     1      51.197  14.308  17.890  0.00  0.00    -0.100 A 
ATOM     46  C   UNL     1      50.627  14.684  16.546  0.00  0.00    +0.073 C 
ATOM     47  C   UNL     1      49.413  13.807  16.235  0.00  0.00    +0.230 C 
ENDROOT
BRANCH   7   8
ATOM      8  O   UNL     1      45.089  15.358  19.508  0.00  0.00    -0.487 OA
ATOM      9  H   UNL     1      44.538  16.051  19.121  0.00  0.00    +0.386 HD
ENDBRANCH   7   8
BRANCH  10  11
ATOM     11  O   UNL     1      45.839  16.905  17.351  0.00  0.00    -0.485 OA
ATOM     12  H   UNL     1      45.662  17.037  16.409  0.00  0.00    +0.385 HD
ENDBRANCH  10  11
BRANCH  17  18
ATOM     18  O   UNL     1      52.793  13.401  21.585  0.00  0.00    -0.302 OA
ATOM     19  C   UNL     1      53.769  12.357  21.616  0.00  0.00    +0.244 C 
ENDBRANCH  17  18
BRANCH  20  21
ATOM     21  O   UNL     1      53.374  15.819  20.395  0.00  0.00    -0.317 OA
ATOM     22  C   UNL     1      54.772  15.710  20.122  0.00  0.00    +0.229 C 
ENDBRANCH  20  21
BRANCH  23  24
ATOM     24  O   UNL     1      52.354  16.388  17.926  0.00  0.00    -0.250 OA
BRANCH  24  25
ATOM     25  C   UNL     1      51.963  17.531  18.548  0.00  0.00    +0.130 A 
ATOM     26  C   UNL     1      52.695  18.699  18.381  0.00  0.00    -0.056 A 
ATOM     27  C   UNL     1      52.290  19.857  19.012  0.00  0.00    +0.040 A 
ATOM     28  C   UNL     1      51.159  19.860  19.815  0.00  0.00    -0.107 A 
ATOM     29  C   UNL     1      50.432  18.700  19.986  0.00  0.00    -0.075 A 
ATOM     30  C   UNL     1      49.204  18.653  20.857  0.00  0.00    +0.232 C 
ATOM     40  N   UNL     1      48.698  20.007  21.107  0.00  0.00    -0.666 NA
ATOM     41  H   UNL     1      48.289  20.399  20.272  0.00  0.00    +0.341 HD
ATOM     42  C   UNL     1      49.776  20.866  21.621  0.00  0.00    +0.216 C 
ATOM     43  C   UNL     1      50.755  21.151  20.480  0.00  0.00    +0.039 C 
ATOM     44  C   UNL     1      50.831  17.537  19.345  0.00  0.00    -0.005 A 
BRANCH  30  31
ATOM     31  C   UNL     1      48.120  17.830  20.157  0.00  0.00    +0.085 C 
BRANCH  31  32
ATOM     32  C   UNL     1      46.914  18.698  19.905  0.00  0.00    -0.107 A 
ATOM     33  C   UNL     1      45.768  18.521  20.658  0.00  0.00    +0.047 A 
ATOM     34  C   UNL     1      44.661  19.314  20.429  0.00  0.00    -0.024 A 
ATOM     35  C   UNL     1      44.700  20.290  19.444  0.00  0.00    +0.123 A 
ATOM     38  C   UNL     1      45.851  20.467  18.691  0.00  0.00    -0.082 A 
ATOM     39  C   UNL     1      46.958  19.674  18.927  0.00  0.00    +0.067 A 
BRANCH  35  36
ATOM     36  O   UNL     1      43.612  21.072  19.217  0.00  0.00    -0.320 OA
ATOM     37  C   UNL     1      42.347  20.413  19.125  0.00  0.00    +0.237 C 
ENDBRANCH  35  36
ENDBRANCH  31  32
ENDBRANCH  30  31
ENDBRANCH  24  25
ENDBRANCH  23  24
TORSDOF 9
ENDMDL
