MODEL 1
REMARK VINA RESULT:      -6.0      0.000      0.000
REMARK  Name = ZINC95486005
REMARK  15 active torsions:
REMARK  status: ('A' for Active; 'I' for Inactive)
REMARK    1  A    between atoms: C1_1  and  C2_2
REMARK    2  A    between atoms: C6_7  and  C34_63
REMARK    3  A    between atoms: C7_9  and  C33_62
REMARK    4  A    between atoms: C16_23  and  C32_60
REMARK    5  A    between atoms: C19_26  and  C21_29
REMARK    6  A    between atoms: C22_31  and  O6_44
REMARK    7  A    between atoms: C23_33  and  O5_43
REMARK    8  A    between atoms: C24_35  and  O4_42
REMARK    9  A    between atoms: C25_37  and  C26_40
REMARK   10  A    between atoms: C26_40  and  O3_41
REMARK   11  A    between atoms: O6_44  and  C27_45
REMARK   12  A    between atoms: C28_47  and  O11_59
REMARK   13  A    between atoms: C29_49  and  O10_58
REMARK   14  A    between atoms: C30_51  and  O9_57
REMARK   15  A    between atoms: C31_53  and  O8_56
REMARK                            x       y       z     vdW  Elec       q    Type
REMARK                         _______ _______ _______ _____ _____    ______ ____
ROOT
ATOM     21  C   UNL     1      50.187  13.762  18.669  0.00  0.00    +0.174 C 
ATOM     22  C   UNL     1      51.535  13.258  18.149  0.00  0.00    +0.160 C 
ATOM     38  C   UNL     1      52.517  13.146  19.320  0.00  0.00    +0.161 C 
ATOM     41  C   UNL     1      51.921  12.218  20.384  0.00  0.00    +0.117 C 
ATOM     44  C   UNL     1      50.557  12.763  20.818  0.00  0.00    +0.129 C 
ATOM     48  O   UNL     1      49.704  12.872  19.677  0.00  0.00    -0.337 OA
ENDROOT
BRANCH  21  20
ATOM      1  C   UNL     1      46.349  24.696  20.993  0.00  0.00    +0.026 C 
ATOM      2  C   UNL     1      45.684  23.450  21.580  0.00  0.00    -0.050 C 
ATOM      3  C   UNL     1      46.759  22.436  21.979  0.00  0.00    +0.025 C 
ATOM      4  C   UNL     1      46.078  21.168  22.505  0.00  0.00    +0.000 C 
ATOM      5  C   UNL     1      45.123  20.632  21.442  0.00  0.00    +0.270 C 
ATOM      6  O   UNL     1      44.179  21.630  21.066  0.00  0.00    -0.353 OA
ATOM      7  C   UNL     1      44.380  19.393  21.993  0.00  0.00    -0.006 C 
ATOM      8  C   UNL     1      42.867  19.620  21.985  0.00  0.00    +0.051 C 
ATOM      9  C   UNL     1      44.773  18.289  21.004  0.00  0.00    -0.092 C 
ATOM     10  C   UNL     1      43.765  18.214  19.855  0.00  0.00    +0.049 C 
ATOM     11  C   UNL     1      45.020  16.919  21.609  0.00  0.00    +0.035 C 
ATOM     12  C   UNL     1      45.508  15.994  20.480  0.00  0.00    +0.033 C 
ATOM     13  C   UNL     1      46.765  16.552  19.826  0.00  0.00    +0.008 C 
ATOM     14  C   UNL     1      46.534  17.982  19.308  0.00  0.00    -0.005 C 
ATOM     15  C   UNL     1      47.826  18.461  18.689  0.00  0.00    +0.362 C 
ATOM     16  O   UNL     1      48.333  19.503  19.027  0.00  0.00    -0.437 OA
ATOM     17  C   UNL     1      48.463  17.587  17.630  0.00  0.00    +0.021 C 
ATOM     18  C   UNL     1      48.588  16.156  18.166  0.00  0.00    +0.000 C 
ATOM     19  C   UNL     1      49.075  15.248  17.035  0.00  0.00    +0.041 C 
ATOM     20  C   UNL     1      49.184  13.820  17.515  0.00  0.00    +0.027 C 
ATOM     49  C   UNL     1      47.817  13.334  18.002  0.00  0.00    +0.030 C 
ATOM     50  C   UNL     1      47.344  14.227  19.150  0.00  0.00    +0.023 C 
ATOM     51  C   UNL     1      47.221  15.673  18.664  0.00  0.00    -0.048 C 
ATOM     52  C   UNL     1      46.196  15.750  17.531  0.00  0.00    +0.033 C 
ATOM     53  C   UNL     1      46.143  18.826  20.499  0.00  0.00    +0.163 C 
ATOM     54  O   UNL     1      45.877  20.206  20.282  0.00  0.00    -0.358 OA
ATOM     55  C   UNL     1      44.762  22.820  20.531  0.00  0.00    +0.218 C 
ENDBRANCH  21  20
BRANCH  38  39
ATOM     39  O   UNL     1      53.757  12.608  18.856  0.00  0.00    -0.550 OA
ATOM     40  H   UNL     1      53.836  11.650  18.963  0.00  0.00    +0.380 HD
ENDBRANCH  38  39
BRANCH  41  42
ATOM     42  O   UNL     1      51.761  10.907  19.839  0.00  0.00    -0.523 OA
ATOM     43  H   UNL     1      52.139  10.205  20.386  0.00  0.00    +0.370 HD
ENDBRANCH  41  42
BRANCH  22  23
ATOM     23  O   UNL     1      51.364  11.975  17.543  0.00  0.00    -0.306 OA
BRANCH  23  24
ATOM     24  C   UNL     1      51.808  11.909  16.186  0.00  0.00    +0.314 C 
ATOM     25  C   UNL     1      50.841  11.042  15.375  0.00  0.00    +0.182 C 
ATOM     28  C   UNL     1      51.289  11.026  13.910  0.00  0.00    +0.201 C 
ATOM     31  C   UNL     1      51.352  12.467  13.392  0.00  0.00    +0.128 C 
ATOM     34  C   UNL     1      52.298  13.278  14.279  0.00  0.00    +0.308 C 
ATOM     37  O   UNL     1      51.842  13.227  15.633  0.00  0.00    -0.417 OA
BRANCH  25  26
ATOM     26  O   UNL     1      49.521  11.583  15.467  0.00  0.00    -0.516 OA
ATOM     27  H   UNL     1      49.226  12.035  14.665  0.00  0.00    +0.375 HD
ENDBRANCH  25  26
BRANCH  28  29
ATOM     29  O   UNL     1      50.352  10.277  13.133  0.00  0.00    -0.533 OA
ATOM     30  H   UNL     1      49.431  10.538  13.269  0.00  0.00    +0.379 HD
ENDBRANCH  28  29
BRANCH  31  32
ATOM     32  O   UNL     1      50.046  13.045  13.429  0.00  0.00    -0.512 OA
ATOM     33  H   UNL     1      49.596  13.055  12.573  0.00  0.00    +0.375 HD
ENDBRANCH  31  32
BRANCH  34  35
ATOM     35  O   UNL     1      52.319  14.636  13.835  0.00  0.00    -0.539 OA
ATOM     36  H   UNL     1      51.902  14.775  12.973  0.00  0.00    +0.391 HD
ENDBRANCH  34  35
ENDBRANCH  23  24
ENDBRANCH  22  23
BRANCH  44  45
ATOM     45  C   UNL     1      49.928  11.810  21.837  0.00  0.00    +0.201 C 
BRANCH  45  46
ATOM     46  O   UNL     1      48.983  10.965  21.178  0.00  0.00    -0.561 OA
ATOM     47  H   UNL     1      49.380  10.346  20.550  0.00  0.00    +0.383 HD
ENDBRANCH  45  46
ENDBRANCH  44  45
TORSDOF 11
ENDMDL
MODEL 2
REMARK VINA RESULT:      -5.3      1.608      2.283
REMARK  Name = ZINC95486005
REMARK  15 active torsions:
REMARK  status: ('A' for Active; 'I' for Inactive)
REMARK    1  A    between atoms: C1_1  and  C2_2
REMARK    2  A    between atoms: C6_7  and  C34_63
REMARK    3  A    between atoms: C7_9  and  C33_62
REMARK    4  A    between atoms: C16_23  and  C32_60
REMARK    5  A    between atoms: C19_26  and  C21_29
REMARK    6  A    between atoms: C22_31  and  O6_44
REMARK    7  A    between atoms: C23_33  and  O5_43
REMARK    8  A    between atoms: C24_35  and  O4_42
REMARK    9  A    between atoms: C25_37  and  C26_40
REMARK   10  A    between atoms: C26_40  and  O3_41
REMARK   11  A    between atoms: O6_44  and  C27_45
REMARK   12  A    between atoms: C28_47  and  O11_59
REMARK   13  A    between atoms: C29_49  and  O10_58
REMARK   14  A    between atoms: C30_51  and  O9_57
REMARK   15  A    between atoms: C31_53  and  O8_56
REMARK                            x       y       z     vdW  Elec       q    Type
REMARK                         _______ _______ _______ _____ _____    ______ ____
ROOT
ATOM     21  C   UNL     1      49.937  14.249  18.930  0.00  0.00    +0.174 C 
ATOM     22  C   UNL     1      50.823  14.712  17.770  0.00  0.00    +0.160 C 
ATOM     38  C   UNL     1      52.093  15.357  18.334  0.00  0.00    +0.161 C 
ATOM     41  C   UNL     1      52.805  14.348  19.242  0.00  0.00    +0.117 C 
ATOM     44  C   UNL     1      51.842  13.900  20.345  0.00  0.00    +0.129 C 
ATOM     48  O   UNL     1      50.668  13.339  19.752  0.00  0.00    -0.337 OA
ENDROOT
BRANCH  21  20
ATOM      1  C   UNL     1      43.294  24.004  18.299  0.00  0.00    +0.026 C 
ATOM      2  C   UNL     1      43.315  23.102  19.535  0.00  0.00    -0.050 C 
ATOM      3  C   UNL     1      44.747  22.631  19.800  0.00  0.00    +0.025 C 
ATOM      4  C   UNL     1      44.744  21.678  21.001  0.00  0.00    +0.000 C 
ATOM      5  C   UNL     1      43.781  20.526  20.725  0.00  0.00    +0.270 C 
ATOM      6  O   UNL     1      42.478  21.020  20.431  0.00  0.00    -0.353 OA
ATOM      7  C   UNL     1      43.719  19.599  21.962  0.00  0.00    -0.006 C 
ATOM      8  C   UNL     1      42.291  19.508  22.501  0.00  0.00    +0.051 C 
ATOM      9  C   UNL     1      44.178  18.248  21.400  0.00  0.00    -0.092 C 
ATOM     10  C   UNL     1      42.979  17.438  20.902  0.00  0.00    +0.049 C 
ATOM     11  C   UNL     1      45.059  17.418  22.317  0.00  0.00    +0.035 C 
ATOM     12  C   UNL     1      45.500  16.170  21.532  0.00  0.00    +0.033 C 
ATOM     13  C   UNL     1      46.231  16.560  20.255  0.00  0.00    +0.008 C 
ATOM     14  C   UNL     1      45.368  17.487  19.381  0.00  0.00    -0.005 C 
ATOM     15  C   UNL     1      46.169  17.833  18.148  0.00  0.00    +0.362 C 
ATOM     16  O   UNL     1      46.345  18.982  17.820  0.00  0.00    -0.437 OA
ATOM     17  C   UNL     1      46.743  16.690  17.340  0.00  0.00    +0.021 C 
ATOM     18  C   UNL     1      47.518  15.753  18.273  0.00  0.00    +0.000 C 
ATOM     19  C   UNL     1      47.951  14.516  17.482  0.00  0.00    +0.041 C 
ATOM     20  C   UNL     1      48.695  13.551  18.374  0.00  0.00    +0.027 C 
ATOM     49  C   UNL     1      47.791  13.120  19.532  0.00  0.00    +0.030 C 
ATOM     50  C   UNL     1      47.381  14.353  20.338  0.00  0.00    +0.023 C 
ATOM     51  C   UNL     1      46.617  15.329  19.439  0.00  0.00    -0.048 C 
ATOM     52  C   UNL     1      45.354  14.654  18.903  0.00  0.00    +0.033 C 
ATOM     53  C   UNL     1      45.061  18.714  20.207  0.00  0.00    +0.163 C 
ATOM     54  O   UNL     1      44.270  19.738  19.615  0.00  0.00    -0.358 OA
ATOM     55  C   UNL     1      42.419  21.884  19.294  0.00  0.00    +0.218 C 
ENDBRANCH  21  20
BRANCH  38  39
ATOM     39  O   UNL     1      52.960  15.728  17.259  0.00  0.00    -0.550 OA
ATOM     40  H   UNL     1      52.498  16.066  16.480  0.00  0.00    +0.380 HD
ENDBRANCH  38  39
BRANCH  41  42
ATOM     42  O   UNL     1      53.211  13.216  18.472  0.00  0.00    -0.523 OA
ATOM     43  H   UNL     1      53.417  13.420  17.549  0.00  0.00    +0.370 HD
ENDBRANCH  41  42
BRANCH  22  23
ATOM     23  O   UNL     1      51.175  13.589  16.960  0.00  0.00    -0.306 OA
BRANCH  23  24
ATOM     24  C   UNL     1      50.611  13.620  15.647  0.00  0.00    +0.314 C 
ATOM     25  C   UNL     1      51.736  13.593  14.608  0.00  0.00    +0.182 C 
ATOM     28  C   UNL     1      51.121  13.565  13.205  0.00  0.00    +0.201 C 
ATOM     31  C   UNL     1      50.195  12.350  13.090  0.00  0.00    +0.128 C 
ATOM     34  C   UNL     1      49.131  12.425  14.187  0.00  0.00    +0.308 C 
ATOM     37  O   UNL     1      49.768  12.480  15.465  0.00  0.00    -0.417 OA
BRANCH  25  26
ATOM     26  O   UNL     1      52.539  12.427  14.803  0.00  0.00    -0.516 OA
ATOM     27  H   UNL     1      52.087  11.712  15.271  0.00  0.00    +0.375 HD
ENDBRANCH  25  26
BRANCH  28  29
ATOM     29  O   UNL     1      52.162  13.468  12.230  0.00  0.00    -0.533 OA
ATOM     30  H   UNL     1      53.051  13.583  12.592  0.00  0.00    +0.379 HD
ENDBRANCH  28  29
BRANCH  31  32
ATOM     32  O   UNL     1      50.957  11.151  13.242  0.00  0.00    -0.512 OA
ATOM     33  H   UNL     1      51.401  10.863  12.434  0.00  0.00    +0.375 HD
ENDBRANCH  31  32
BRANCH  34  35
ATOM     35  O   UNL     1      48.296  11.267  14.121  0.00  0.00    -0.539 OA
ATOM     36  H   UNL     1      47.742  11.226  13.329  0.00  0.00    +0.391 HD
ENDBRANCH  34  35
ENDBRANCH  23  24
ENDBRANCH  22  23
BRANCH  44  45
ATOM     45  C   UNL     1      52.524  12.848  21.221  0.00  0.00    +0.201 C 
BRANCH  45  46
ATOM     46  O   UNL     1      52.229  11.544  20.716  0.00  0.00    -0.561 OA
ATOM     47  H   UNL     1      52.042  11.522  19.768  0.00  0.00    +0.383 HD
ENDBRANCH  45  46
ENDBRANCH  44  45
TORSDOF 11
ENDMDL
MODEL 3
REMARK VINA RESULT:      -5.2      2.167     10.517
REMARK  Name = ZINC95486005
REMARK  15 active torsions:
REMARK  status: ('A' for Active; 'I' for Inactive)
REMARK    1  A    between atoms: C1_1  and  C2_2
REMARK    2  A    between atoms: C6_7  and  C34_63
REMARK    3  A    between atoms: C7_9  and  C33_62
REMARK    4  A    between atoms: C16_23  and  C32_60
REMARK    5  A    between atoms: C19_26  and  C21_29
REMARK    6  A    between atoms: C22_31  and  O6_44
REMARK    7  A    between atoms: C23_33  and  O5_43
REMARK    8  A    between atoms: C24_35  and  O4_42
REMARK    9  A    between atoms: C25_37  and  C26_40
REMARK   10  A    between atoms: C26_40  and  O3_41
REMARK   11  A    between atoms: O6_44  and  C27_45
REMARK   12  A    between atoms: C28_47  and  O11_59
REMARK   13  A    between atoms: C29_49  and  O10_58
REMARK   14  A    between atoms: C30_51  and  O9_57
REMARK   15  A    between atoms: C31_53  and  O8_56
REMARK                            x       y       z     vdW  Elec       q    Type
REMARK                         _______ _______ _______ _____ _____    ______ ____
ROOT
ATOM     21  C   UNL     1      44.980  18.923  20.008  0.00  0.00    +0.174 C 
ATOM     22  C   UNL     1      43.898  20.006  20.013  0.00  0.00    +0.160 C 
ATOM     38  C   UNL     1      42.519  19.339  20.063  0.00  0.00    +0.161 C 
ATOM     41  C   UNL     1      42.446  18.437  21.300  0.00  0.00    +0.117 C 
ATOM     44  C   UNL     1      43.585  17.416  21.244  0.00  0.00    +0.129 C 
ATOM     48  O   UNL     1      44.836  18.102  21.167  0.00  0.00    -0.337 OA
ENDROOT
BRANCH  21  20
ATOM      1  C   UNL     1      50.455  10.277  14.095  0.00  0.00    +0.026 C 
ATOM      2  C   UNL     1      50.372  10.303  15.622  0.00  0.00    -0.050 C 
ATOM      3  C   UNL     1      48.982  10.782  16.051  0.00  0.00    +0.025 C 
ATOM      4  C   UNL     1      48.933  10.866  17.580  0.00  0.00    +0.000 C 
ATOM      5  C   UNL     1      50.054  11.780  18.070  0.00  0.00    +0.270 C 
ATOM      6  O   UNL     1      51.317  11.322  17.599  0.00  0.00    -0.353 OA
ATOM      7  C   UNL     1      50.054  11.812  19.616  0.00  0.00    -0.006 C 
ATOM      8  C   UNL     1      51.397  11.328  20.168  0.00  0.00    +0.051 C 
ATOM      9  C   UNL     1      49.838  13.297  19.929  0.00  0.00    -0.092 C 
ATOM     10  C   UNL     1      51.181  14.022  20.048  0.00  0.00    +0.049 C 
ATOM     11  C   UNL     1      48.944  13.598  21.118  0.00  0.00    +0.035 C 
ATOM     12  C   UNL     1      48.764  15.124  21.190  0.00  0.00    +0.033 C 
ATOM     13  C   UNL     1      48.173  15.664  19.895  0.00  0.00    +0.008 C 
ATOM     14  C   UNL     1      49.033  15.265  18.682  0.00  0.00    -0.005 C 
ATOM     15  C   UNL     1      48.373  15.827  17.446  0.00  0.00    +0.362 C 
ATOM     16  O   UNL     1      48.109  15.121  16.502  0.00  0.00    -0.437 OA
ATOM     17  C   UNL     1      48.052  17.305  17.432  0.00  0.00    +0.021 C 
ATOM     18  C   UNL     1      47.272  17.664  18.702  0.00  0.00    +0.000 C 
ATOM     19  C   UNL     1      47.101  19.184  18.762  0.00  0.00    +0.041 C 
ATOM     20  C   UNL     1      46.360  19.583  20.017  0.00  0.00    +0.027 C 
ATOM     49  C   UNL     1      47.142  19.113  21.246  0.00  0.00    +0.030 C 
ATOM     50  C   UNL     1      47.290  17.592  21.199  0.00  0.00    +0.023 C 
ATOM     51  C   UNL     1      48.050  17.185  19.933  0.00  0.00    -0.048 C 
ATOM     52  C   UNL     1      49.445  17.812  19.947  0.00  0.00    +0.033 C 
ATOM     53  C   UNL     1      49.078  13.755  18.651  0.00  0.00    +0.163 C 
ATOM     54  O   UNL     1      49.816  13.130  17.608  0.00  0.00    -0.358 OA
ATOM     55  C   UNL     1      51.429  11.263  16.175  0.00  0.00    +0.218 C 
ENDBRANCH  21  20
BRANCH  38  39
ATOM     39  O   UNL     1      41.504  20.342  20.140  0.00  0.00    -0.550 OA
ATOM     40  H   UNL     1      41.598  20.939  20.895  0.00  0.00    +0.380 HD
ENDBRANCH  38  39
BRANCH  41  42
ATOM     42  O   UNL     1      42.574  19.234  22.479  0.00  0.00    -0.523 OA
ATOM     43  H   UNL     1      43.411  19.113  22.947  0.00  0.00    +0.370 HD
ENDBRANCH  41  42
BRANCH  22  23
ATOM     23  O   UNL     1      44.066  20.845  21.157  0.00  0.00    -0.306 OA
BRANCH  23  24
ATOM     24  C   UNL     1      43.818  22.229  20.905  0.00  0.00    +0.314 C 
ATOM     25  C   UNL     1      45.143  22.996  20.923  0.00  0.00    +0.182 C 
ATOM     28  C   UNL     1      44.875  24.468  20.592  0.00  0.00    +0.201 C 
ATOM     31  C   UNL     1      44.172  24.554  19.234  0.00  0.00    +0.128 C 
ATOM     34  C   UNL     1      42.885  23.727  19.281  0.00  0.00    +0.308 C 
ATOM     37  O   UNL     1      43.201  22.376  19.624  0.00  0.00    -0.417 OA
BRANCH  25  26
ATOM     26  O   UNL     1      46.031  22.440  19.950  0.00  0.00    -0.516 OA
ATOM     27  H   UNL     1      45.802  22.663  19.038  0.00  0.00    +0.375 HD
ENDBRANCH  25  26
BRANCH  28  29
ATOM     29  O   UNL     1      46.114  25.178  20.537  0.00  0.00    -0.533 OA
ATOM     30  H   UNL     1      46.626  25.139  21.356  0.00  0.00    +0.379 HD
ENDBRANCH  28  29
BRANCH  31  32
ATOM     32  O   UNL     1      45.033  24.042  18.216  0.00  0.00    -0.512 OA
ATOM     33  H   UNL     1      45.255  23.107  18.322  0.00  0.00    +0.375 HD
ENDBRANCH  31  32
BRANCH  34  35
ATOM     35  O   UNL     1      42.252  23.758  18.001  0.00  0.00    -0.539 OA
ATOM     36  H   UNL     1      42.355  22.943  17.491  0.00  0.00    +0.391 HD
ENDBRANCH  34  35
ENDBRANCH  23  24
ENDBRANCH  22  23
BRANCH  44  45
ATOM     45  C   UNL     1      43.555  16.550  22.505  0.00  0.00    +0.201 C 
BRANCH  45  46
ATOM     46  O   UNL     1      44.388  15.404  22.316  0.00  0.00    -0.561 OA
ATOM     47  H   UNL     1      43.925  14.637  21.951  0.00  0.00    +0.383 HD
ENDBRANCH  45  46
ENDBRANCH  44  45
TORSDOF 11
ENDMDL
MODEL 4
REMARK VINA RESULT:      -4.9      2.611      9.254
REMARK  Name = ZINC95486005
REMARK  15 active torsions:
REMARK  status: ('A' for Active; 'I' for Inactive)
REMARK    1  A    between atoms: C1_1  and  C2_2
REMARK    2  A    between atoms: C6_7  and  C34_63
REMARK    3  A    between atoms: C7_9  and  C33_62
REMARK    4  A    between atoms: C16_23  and  C32_60
REMARK    5  A    between atoms: C19_26  and  C21_29
REMARK    6  A    between atoms: C22_31  and  O6_44
REMARK    7  A    between atoms: C23_33  and  O5_43
REMARK    8  A    between atoms: C24_35  and  O4_42
REMARK    9  A    between atoms: C25_37  and  C26_40
REMARK   10  A    between atoms: C26_40  and  O3_41
REMARK   11  A    between atoms: O6_44  and  C27_45
REMARK   12  A    between atoms: C28_47  and  O11_59
REMARK   13  A    between atoms: C29_49  and  O10_58
REMARK   14  A    between atoms: C30_51  and  O9_57
REMARK   15  A    between atoms: C31_53  and  O8_56
REMARK                            x       y       z     vdW  Elec       q    Type
REMARK                         _______ _______ _______ _____ _____    ______ ____
ROOT
ATOM     21  C   UNL     1      46.141  18.726  20.997  0.00  0.00    +0.174 C 
ATOM     22  C   UNL     1      47.287  19.377  20.218  0.00  0.00    +0.160 C 
ATOM     38  C   UNL     1      46.717  20.456  19.291  0.00  0.00    +0.161 C 
ATOM     41  C   UNL     1      45.934  21.472  20.130  0.00  0.00    +0.117 C 
ATOM     44  C   UNL     1      44.840  20.739  20.912  0.00  0.00    +0.129 C 
ATOM     48  O   UNL     1      45.435  19.729  21.729  0.00  0.00    -0.337 OA
ENDROOT
BRANCH  21  20
ATOM      1  C   UNL     1      51.524  12.210  12.735  0.00  0.00    +0.026 C 
ATOM      2  C   UNL     1      50.091  11.935  13.193  0.00  0.00    -0.050 C 
ATOM      3  C   UNL     1      49.355  13.263  13.396  0.00  0.00    +0.025 C 
ATOM      4  C   UNL     1      47.942  12.975  13.917  0.00  0.00    +0.000 C 
ATOM      5  C   UNL     1      48.037  12.147  15.196  0.00  0.00    +0.270 C 
ATOM      6  O   UNL     1      48.777  10.952  14.967  0.00  0.00    -0.353 OA
ATOM      7  C   UNL     1      46.614  11.793  15.688  0.00  0.00    -0.006 C 
ATOM      8  C   UNL     1      46.427  10.277  15.762  0.00  0.00    +0.051 C 
ATOM      9  C   UNL     1      46.570  12.418  17.087  0.00  0.00    -0.092 C 
ATOM     10  C   UNL     1      47.038  11.411  18.140  0.00  0.00    +0.049 C 
ATOM     11  C   UNL     1      45.250  13.054  17.483  0.00  0.00    +0.035 C 
ATOM     12  C   UNL     1      45.447  13.717  18.858  0.00  0.00    +0.033 C 
ATOM     13  C   UNL     1      46.571  14.743  18.812  0.00  0.00    +0.008 C 
ATOM     14  C   UNL     1      47.881  14.110  18.308  0.00  0.00    -0.005 C 
ATOM     15  C   UNL     1      48.934  15.192  18.281  0.00  0.00    +0.362 C 
ATOM     16  O   UNL     1      49.574  15.417  17.282  0.00  0.00    -0.437 OA
ATOM     17  C   UNL     1      49.156  15.987  19.549  0.00  0.00    +0.021 C 
ATOM     18  C   UNL     1      47.810  16.520  20.054  0.00  0.00    +0.000 C 
ATOM     19  C   UNL     1      48.020  17.175  21.420  0.00  0.00    +0.041 C 
ATOM     20  C   UNL     1      46.709  17.689  21.967  0.00  0.00    +0.027 C 
ATOM     49  C   UNL     1      45.721  16.528  22.109  0.00  0.00    +0.030 C 
ATOM     50  C   UNL     1      45.491  15.891  20.738  0.00  0.00    +0.023 C 
ATOM     51  C   UNL     1      46.817  15.359  20.186  0.00  0.00    -0.048 C 
ATOM     52  C   UNL     1      47.379  14.296  21.131  0.00  0.00    +0.033 C 
ATOM     53  C   UNL     1      47.607  13.566  16.925  0.00  0.00    +0.163 C 
ATOM     54  O   UNL     1      48.674  12.928  16.234  0.00  0.00    -0.358 OA
ATOM     55  C   UNL     1      50.117  11.165  14.517  0.00  0.00    +0.218 C 
ENDBRANCH  21  20
BRANCH  38  39
ATOM     39  O   UNL     1      47.787  21.119  18.613  0.00  0.00    -0.550 OA
ATOM     40  H   UNL     1      48.609  21.161  19.121  0.00  0.00    +0.380 HD
ENDBRANCH  38  39
BRANCH  41  42
ATOM     42  O   UNL     1      46.820  22.123  21.043  0.00  0.00    -0.523 OA
ATOM     43  H   UNL     1      47.697  22.304  20.678  0.00  0.00    +0.370 HD
ENDBRANCH  41  42
BRANCH  22  23
ATOM     23  O   UNL     1      48.210  19.971  21.134  0.00  0.00    -0.306 OA
BRANCH  23  24
ATOM     24  C   UNL     1      49.468  20.318  20.549  0.00  0.00    +0.314 C 
ATOM     25  C   UNL     1      50.532  20.411  21.646  0.00  0.00    +0.182 C 
ATOM     28  C   UNL     1      51.888  20.723  21.005  0.00  0.00    +0.201 C 
ATOM     31  C   UNL     1      52.212  19.641  19.970  0.00  0.00    +0.128 C 
ATOM     34  C   UNL     1      51.083  19.578  18.939  0.00  0.00    +0.308 C 
ATOM     37  O   UNL     1      49.845  19.315  19.603  0.00  0.00    -0.417 OA
BRANCH  25  26
ATOM     26  O   UNL     1      50.608  19.166  22.345  0.00  0.00    -0.516 OA
ATOM     27  H   UNL     1      49.906  18.543  22.114  0.00  0.00    +0.375 HD
ENDBRANCH  25  26
BRANCH  28  29
ATOM     29  O   UNL     1      52.900  20.742  22.013  0.00  0.00    -0.533 OA
ATOM     30  H   UNL     1      52.619  20.364  22.858  0.00  0.00    +0.379 HD
ENDBRANCH  28  29
BRANCH  31  32
ATOM     32  O   UNL     1      52.335  18.377  20.623  0.00  0.00    -0.512 OA
ATOM     33  H   UNL     1      52.259  17.618  20.029  0.00  0.00    +0.375 HD
ENDBRANCH  31  32
BRANCH  34  35
ATOM     35  O   UNL     1      51.352  18.533  18.002  0.00  0.00    -0.539 OA
ATOM     36  H   UNL     1      52.279  18.473  17.735  0.00  0.00    +0.391 HD
ENDBRANCH  34  35
ENDBRANCH  23  24
ENDBRANCH  22  23
BRANCH  44  45
ATOM     45  C   UNL     1      44.092  21.737  21.798  0.00  0.00    +0.201 C 
BRANCH  45  46
ATOM     46  O   UNL     1      43.970  22.985  21.112  0.00  0.00    -0.561 OA
ATOM     47  H   UNL     1      44.806  23.459  21.007  0.00  0.00    +0.383 HD
ENDBRANCH  45  46
ENDBRANCH  44  45
TORSDOF 11
ENDMDL
MODEL 5
REMARK VINA RESULT:      -4.7      1.789      5.146
REMARK  Name = ZINC95486005
REMARK  15 active torsions:
REMARK  status: ('A' for Active; 'I' for Inactive)
REMARK    1  A    between atoms: C1_1  and  C2_2
REMARK    2  A    between atoms: C6_7  and  C34_63
REMARK    3  A    between atoms: C7_9  and  C33_62
REMARK    4  A    between atoms: C16_23  and  C32_60
REMARK    5  A    between atoms: C19_26  and  C21_29
REMARK    6  A    between atoms: C22_31  and  O6_44
REMARK    7  A    between atoms: C23_33  and  O5_43
REMARK    8  A    between atoms: C24_35  and  O4_42
REMARK    9  A    between atoms: C25_37  and  C26_40
REMARK   10  A    between atoms: C26_40  and  O3_41
REMARK   11  A    between atoms: O6_44  and  C27_45
REMARK   12  A    between atoms: C28_47  and  O11_59
REMARK   13  A    between atoms: C29_49  and  O10_58
REMARK   14  A    between atoms: C30_51  and  O9_57
REMARK   15  A    between atoms: C31_53  and  O8_56
REMARK                            x       y       z     vdW  Elec       q    Type
REMARK                         _______ _______ _______ _____ _____    ______ ____
ROOT
ATOM     21  C   UNL     1      50.911  14.314  17.406  0.00  0.00    +0.174 C 
ATOM     22  C   UNL     1      50.529  12.831  17.415  0.00  0.00    +0.160 C 
ATOM     38  C   UNL     1      50.026  12.433  16.023  0.00  0.00    +0.161 C 
ATOM     41  C   UNL     1      51.114  12.747  14.991  0.00  0.00    +0.117 C 
ATOM     44  C   UNL     1      51.473  14.233  15.076  0.00  0.00    +0.129 C 
ATOM     48  O   UNL     1      51.902  14.543  16.404  0.00  0.00    -0.337 OA
ENDROOT
BRANCH  21  20
ATOM      1  C   UNL     1      40.820  18.885  21.527  0.00  0.00    +0.026 C 
ATOM      2  C   UNL     1      41.868  19.729  20.799  0.00  0.00    -0.050 C 
ATOM      3  C   UNL     1      42.443  18.931  19.626  0.00  0.00    +0.025 C 
ATOM      4  C   UNL     1      43.536  19.762  18.945  0.00  0.00    +0.000 C 
ATOM      5  C   UNL     1      44.593  20.145  19.978  0.00  0.00    +0.270 C 
ATOM      6  O   UNL     1      43.999  20.835  21.073  0.00  0.00    -0.353 OA
ATOM      7  C   UNL     1      45.662  21.044  19.313  0.00  0.00    -0.006 C 
ATOM      8  C   UNL     1      45.744  22.399  20.016  0.00  0.00    +0.051 C 
ATOM      9  C   UNL     1      46.955  20.244  19.513  0.00  0.00    -0.092 C 
ATOM     10  C   UNL     1      47.633  20.641  20.827  0.00  0.00    +0.049 C 
ATOM     11  C   UNL     1      47.936  20.277  18.356  0.00  0.00    +0.035 C 
ATOM     12  C   UNL     1      49.099  19.332  18.706  0.00  0.00    +0.033 C 
ATOM     13  C   UNL     1      48.592  17.920  18.970  0.00  0.00    +0.008 C 
ATOM     14  C   UNL     1      47.520  17.912  20.075  0.00  0.00    -0.005 C 
ATOM     15  C   UNL     1      47.066  16.485  20.264  0.00  0.00    +0.362 C 
ATOM     16  O   UNL     1      45.896  16.189  20.212  0.00  0.00    -0.437 OA
ATOM     17  C   UNL     1      48.128  15.438  20.518  0.00  0.00    +0.021 C 
ATOM     18  C   UNL     1      49.213  15.548  19.440  0.00  0.00    +0.000 C 
ATOM     19  C   UNL     1      50.363  14.604  19.800  0.00  0.00    +0.041 C 
ATOM     20  C   UNL     1      51.469  14.704  18.776  0.00  0.00    +0.027 C 
ATOM     49  C   UNL     1      51.992  16.142  18.723  0.00  0.00    +0.030 C 
ATOM     50  C   UNL     1      50.849  17.081  18.338  0.00  0.00    +0.023 C 
ATOM     51  C   UNL     1      49.730  16.990  19.380  0.00  0.00    -0.048 C 
ATOM     52  C   UNL     1      50.268  17.410  20.749  0.00  0.00    +0.033 C 
ATOM     53  C   UNL     1      46.391  18.797  19.601  0.00  0.00    +0.163 C 
ATOM     54  O   UNL     1      45.262  18.953  20.452  0.00  0.00    -0.358 OA
ATOM     55  C   UNL     1      42.999  20.087  21.768  0.00  0.00    +0.218 C 
ENDBRANCH  21  20
BRANCH  38  39
ATOM     39  O   UNL     1      49.735  11.034  16.002  0.00  0.00    -0.550 OA
ATOM     40  H   UNL     1      50.519  10.468  16.027  0.00  0.00    +0.380 HD
ENDBRANCH  38  39
BRANCH  41  42
ATOM     42  O   UNL     1      52.274  11.958  15.264  0.00  0.00    -0.523 OA
ATOM     43  H   UNL     1      52.138  11.007  15.154  0.00  0.00    +0.370 HD
ENDBRANCH  41  42
BRANCH  22  23
ATOM     23  O   UNL     1      51.673  12.045  17.754  0.00  0.00    -0.306 OA
BRANCH  23  24
ATOM     24  C   UNL     1      51.462  11.157  18.854  0.00  0.00    +0.314 C 
ATOM     25  C   UNL     1      52.683  11.192  19.778  0.00  0.00    +0.182 C 
ATOM     28  C   UNL     1      52.424  10.284  20.985  0.00  0.00    +0.201 C 
ATOM     31  C   UNL     1      51.146  10.745  21.692  0.00  0.00    +0.128 C 
ATOM     34  C   UNL     1      49.986  10.728  20.694  0.00  0.00    +0.308 C 
ATOM     37  O   UNL     1      50.303  11.567  19.581  0.00  0.00    -0.417 OA
BRANCH  25  26
ATOM     26  O   UNL     1      52.906  12.531  20.225  0.00  0.00    -0.516 OA
ATOM     27  H   UNL     1      52.612  12.696  21.131  0.00  0.00    +0.375 HD
ENDBRANCH  25  26
BRANCH  28  29
ATOM     29  O   UNL     1      53.528  10.365  21.888  0.00  0.00    -0.533 OA
ATOM     30  H   UNL     1      53.280  10.598  22.793  0.00  0.00    +0.379 HD
ENDBRANCH  28  29
BRANCH  31  32
ATOM     32  O   UNL     1      51.328  12.071  22.192  0.00  0.00    -0.512 OA
ATOM     33  H   UNL     1      50.530  12.460  22.574  0.00  0.00    +0.375 HD
ENDBRANCH  31  32
BRANCH  34  35
ATOM     35  O   UNL     1      48.802  11.209  21.332  0.00  0.00    -0.539 OA
ATOM     36  H   UNL     1      47.983  10.970  20.875  0.00  0.00    +0.391 HD
ENDBRANCH  34  35
ENDBRANCH  23  24
ENDBRANCH  22  23
BRANCH  44  45
ATOM     45  C   UNL     1      52.601  14.543  14.090  0.00  0.00    +0.201 C 
BRANCH  45  46
ATOM     46  O   UNL     1      52.305  13.947  12.825  0.00  0.00    -0.561 OA
ATOM     47  H   UNL     1      52.150  14.587  12.116  0.00  0.00    +0.383 HD
ENDBRANCH  45  46
ENDBRANCH  44  45
TORSDOF 11
ENDMDL
MODEL 6
REMARK VINA RESULT:      -3.4      2.761     10.293
REMARK  Name = ZINC95486005
REMARK  15 active torsions:
REMARK  status: ('A' for Active; 'I' for Inactive)
REMARK    1  A    between atoms: C1_1  and  C2_2
REMARK    2  A    between atoms: C6_7  and  C34_63
REMARK    3  A    between atoms: C7_9  and  C33_62
REMARK    4  A    between atoms: C16_23  and  C32_60
REMARK    5  A    between atoms: C19_26  and  C21_29
REMARK    6  A    between atoms: C22_31  and  O6_44
REMARK    7  A    between atoms: C23_33  and  O5_43
REMARK    8  A    between atoms: C24_35  and  O4_42
REMARK    9  A    between atoms: C25_37  and  C26_40
REMARK   10  A    between atoms: C26_40  and  O3_41
REMARK   11  A    between atoms: O6_44  and  C27_45
REMARK   12  A    between atoms: C28_47  and  O11_59
REMARK   13  A    between atoms: C29_49  and  O10_58
REMARK   14  A    between atoms: C30_51  and  O9_57
REMARK   15  A    between atoms: C31_53  and  O8_56
REMARK                            x       y       z     vdW  Elec       q    Type
REMARK                         _______ _______ _______ _____ _____    ______ ____
ROOT
ATOM     21  C   UNL     1      45.564  18.771  19.037  0.00  0.00    +0.174 C 
ATOM     22  C   UNL     1      44.357  19.589  19.502  0.00  0.00    +0.160 C 
ATOM     38  C   UNL     1      43.233  18.636  19.919  0.00  0.00    +0.161 C 
ATOM     41  C   UNL     1      43.755  17.697  21.012  0.00  0.00    +0.117 C 
ATOM     44  C   UNL     1      44.985  16.952  20.487  0.00  0.00    +0.129 C 
ATOM     48  O   UNL     1      45.979  17.897  20.087  0.00  0.00    -0.337 OA
ENDROOT
BRANCH  21  20
ATOM      1  C   UNL     1      53.677  10.290  17.647  0.00  0.00    +0.026 C 
ATOM      2  C   UNL     1      53.446  10.995  18.985  0.00  0.00    -0.050 C 
ATOM      3  C   UNL     1      51.945  11.208  19.199  0.00  0.00    +0.025 C 
ATOM      4  C   UNL     1      51.732  11.972  20.510  0.00  0.00    +0.000 C 
ATOM      5  C   UNL     1      52.517  13.281  20.463  0.00  0.00    +0.270 C 
ATOM      6  O   UNL     1      53.896  13.031  20.207  0.00  0.00    -0.353 OA
ATOM      7  C   UNL     1      52.364  14.023  21.811  0.00  0.00    -0.006 C 
ATOM      8  C   UNL     1      53.728  14.247  22.466  0.00  0.00    +0.051 C 
ATOM      9  C   UNL     1      51.731  15.358  21.397  0.00  0.00    -0.092 C 
ATOM     10  C   UNL     1      52.814  16.397  21.103  0.00  0.00    +0.049 C 
ATOM     11  C   UNL     1      50.681  15.911  22.344  0.00  0.00    +0.035 C 
ATOM     12  C   UNL     1      50.095  17.178  21.698  0.00  0.00    +0.033 C 
ATOM     13  C   UNL     1      49.506  16.869  20.329  0.00  0.00    +0.008 C 
ATOM     14  C   UNL     1      50.551  16.212  19.410  0.00  0.00    -0.005 C 
ATOM     15  C   UNL     1      49.885  15.928  18.084  0.00  0.00    +0.362 C 
ATOM     16  O   UNL     1      49.909  14.824  17.596  0.00  0.00    -0.437 OA
ATOM     17  C   UNL     1      49.184  17.076  17.391  0.00  0.00    +0.021 C 
ATOM     18  C   UNL     1      48.221  17.748  18.377  0.00  0.00    +0.000 C 
ATOM     19  C   UNL     1      47.646  19.007  17.723  0.00  0.00    +0.041 C 
ATOM     20  C   UNL     1      46.711  19.716  18.674  0.00  0.00    +0.027 C 
ATOM     49  C   UNL     1      47.470  20.108  19.944  0.00  0.00    +0.030 C 
ATOM     50  C   UNL     1      48.022  18.847  20.611  0.00  0.00    +0.023 C 
ATOM     51  C   UNL     1      48.978  18.131  19.653  0.00  0.00    -0.048 C 
ATOM     52  C   UNL     1      50.149  19.055  19.309  0.00  0.00    +0.033 C 
ATOM     53  C   UNL     1      51.000  14.939  20.090  0.00  0.00    +0.163 C 
ATOM     54  O   UNL     1      51.973  14.137  19.431  0.00  0.00    -0.358 OA
ATOM     55  C   UNL     1      54.153  12.354  18.975  0.00  0.00    +0.218 C 
ENDBRANCH  21  20
BRANCH  38  39
ATOM     39  O   UNL     1      42.128  19.389  20.423  0.00  0.00    -0.550 OA
ATOM     40  H   UNL     1      42.364  20.015  21.122  0.00  0.00    +0.380 HD
ENDBRANCH  38  39
BRANCH  41  42
ATOM     42  O   UNL     1      44.113  18.459  22.166  0.00  0.00    -0.523 OA
ATOM     43  H   UNL     1      44.321  17.923  22.943  0.00  0.00    +0.370 HD
ENDBRANCH  41  42
BRANCH  22  23
ATOM     23  O   UNL     1      44.732  20.404  20.615  0.00  0.00    -0.306 OA
BRANCH  23  24
ATOM     24  C   UNL     1      44.097  21.684  20.640  0.00  0.00    +0.314 C 
ATOM     25  C   UNL     1      45.162  22.780  20.739  0.00  0.00    +0.182 C 
ATOM     28  C   UNL     1      44.477  24.150  20.703  0.00  0.00    +0.201 C 
ATOM     31  C   UNL     1      43.647  24.259  19.420  0.00  0.00    +0.128 C 
ATOM     34  C   UNL     1      42.641  23.107  19.372  0.00  0.00    +0.308 C 
ATOM     37  O   UNL     1      43.341  21.862  19.440  0.00  0.00    -0.417 OA
BRANCH  25  26
ATOM     26  O   UNL     1      46.067  22.668  19.638  0.00  0.00    -0.516 OA
ATOM     27  H   UNL     1      46.708  21.950  19.728  0.00  0.00    +0.375 HD
ENDBRANCH  25  26
BRANCH  28  29
ATOM     29  O   UNL     1      45.468  25.179  20.723  0.00  0.00    -0.533 OA
ATOM     30  H   UNL     1      45.455  25.753  19.945  0.00  0.00    +0.379 HD
ENDBRANCH  28  29
BRANCH  31  32
ATOM     32  O   UNL     1      44.510  24.189  18.284  0.00  0.00    -0.512 OA
ATOM     33  H   UNL     1      45.444  24.330  18.491  0.00  0.00    +0.375 HD
ENDBRANCH  31  32
BRANCH  34  35
ATOM     35  O   UNL     1      41.901  23.171  18.152  0.00  0.00    -0.539 OA
ATOM     36  H   UNL     1      41.150  22.563  18.115  0.00  0.00    +0.391 HD
ENDBRANCH  34  35
ENDBRANCH  23  24
ENDBRANCH  22  23
BRANCH  44  45
ATOM     45  C   UNL     1      45.548  16.056  21.593  0.00  0.00    +0.201 C 
BRANCH  45  46
ATOM     46  O   UNL     1      44.478  15.576  22.409  0.00  0.00    -0.561 OA
ATOM     47  H   UNL     1      43.912  16.274  22.766  0.00  0.00    +0.383 HD
ENDBRANCH  45  46
ENDBRANCH  44  45
TORSDOF 11
ENDMDL
MODEL 7
REMARK VINA RESULT:      -3.3      2.575      3.414
REMARK  Name = ZINC95486005
REMARK  15 active torsions:
REMARK  status: ('A' for Active; 'I' for Inactive)
REMARK    1  A    between atoms: C1_1  and  C2_2
REMARK    2  A    between atoms: C6_7  and  C34_63
REMARK    3  A    between atoms: C7_9  and  C33_62
REMARK    4  A    between atoms: C16_23  and  C32_60
REMARK    5  A    between atoms: C19_26  and  C21_29
REMARK    6  A    between atoms: C22_31  and  O6_44
REMARK    7  A    between atoms: C23_33  and  O5_43
REMARK    8  A    between atoms: C24_35  and  O4_42
REMARK    9  A    between atoms: C25_37  and  C26_40
REMARK   10  A    between atoms: C26_40  and  O3_41
REMARK   11  A    between atoms: O6_44  and  C27_45
REMARK   12  A    between atoms: C28_47  and  O11_59
REMARK   13  A    between atoms: C29_49  and  O10_58
REMARK   14  A    between atoms: C30_51  and  O9_57
REMARK   15  A    between atoms: C31_53  and  O8_56
REMARK                            x       y       z     vdW  Elec       q    Type
REMARK                         _______ _______ _______ _____ _____    ______ ____
ROOT
ATOM     21  C   UNL     1      50.587  14.038  20.789  0.00  0.00    +0.174 C 
ATOM     22  C   UNL     1      51.270  15.332  20.339  0.00  0.00    +0.160 C 
ATOM     38  C   UNL     1      52.233  15.800  21.434  0.00  0.00    +0.161 C 
ATOM     41  C   UNL     1      53.240  14.682  21.724  0.00  0.00    +0.117 C 
ATOM     44  C   UNL     1      52.481  13.414  22.122  0.00  0.00    +0.129 C 
ATOM     48  O   UNL     1      51.580  13.051  21.074  0.00  0.00    -0.337 OA
ENDROOT
BRANCH  21  20
ATOM      1  C   UNL     1      44.752  24.218  19.370  0.00  0.00    +0.026 C 
ATOM      2  C   UNL     1      44.279  23.126  20.332  0.00  0.00    -0.050 C 
ATOM      3  C   UNL     1      45.487  22.515  21.047  0.00  0.00    +0.025 C 
ATOM      4  C   UNL     1      45.005  21.381  21.958  0.00  0.00    +0.000 C 
ATOM      5  C   UNL     1      44.230  20.363  21.126  0.00  0.00    +0.270 C 
ATOM      6  O   UNL     1      43.153  20.991  20.439  0.00  0.00    -0.353 OA
ATOM      7  C   UNL     1      43.681  19.252  22.052  0.00  0.00    -0.006 C 
ATOM      8  C   UNL     1      42.156  19.177  21.963  0.00  0.00    +0.051 C 
ATOM      9  C   UNL     1      44.324  17.982  21.482  0.00  0.00    -0.092 C 
ATOM     10  C   UNL     1      43.422  17.354  20.418  0.00  0.00    +0.049 C 
ATOM     11  C   UNL     1      44.767  16.951  22.505  0.00  0.00    +0.035 C 
ATOM     12  C   UNL     1      45.482  15.820  21.746  0.00  0.00    +0.033 C 
ATOM     13  C   UNL     1      46.662  16.361  20.950  0.00  0.00    +0.008 C 
ATOM     14  C   UNL     1      46.219  17.479  19.989  0.00  0.00    -0.005 C 
ATOM     15  C   UNL     1      47.444  17.964  19.252  0.00  0.00    +0.362 C 
ATOM     16  O   UNL     1      47.738  19.135  19.231  0.00  0.00    -0.437 OA
ATOM     17  C   UNL     1      48.292  16.931  18.543  0.00  0.00    +0.021 C 
ATOM     18  C   UNL     1      48.631  15.799  19.520  0.00  0.00    +0.000 C 
ATOM     19  C   UNL     1      49.341  14.682  18.753  0.00  0.00    +0.041 C 
ATOM     20  C   UNL     1      49.668  13.532  19.676  0.00  0.00    +0.027 C 
ATOM     49  C   UNL     1      48.377  12.983  20.290  0.00  0.00    +0.030 C 
ATOM     50  C   UNL     1      47.681  14.094  21.079  0.00  0.00    +0.023 C 
ATOM     51  C   UNL     1      47.340  15.257  20.143  0.00  0.00    -0.048 C 
ATOM     52  C   UNL     1      46.393  14.771  19.044  0.00  0.00    +0.033 C 
ATOM     53  C   UNL     1      45.609  18.573  20.835  0.00  0.00    +0.163 C 
ATOM     54  O   UNL     1      45.121  19.734  20.175  0.00  0.00    -0.358 OA
ATOM     55  C   UNL     1      43.552  22.032  19.545  0.00  0.00    +0.218 C 
ENDBRANCH  21  20
BRANCH  38  39
ATOM     39  O   UNL     1      52.929  16.968  20.992  0.00  0.00    -0.550 OA
ATOM     40  H   UNL     1      52.461  17.471  20.312  0.00  0.00    +0.380 HD
ENDBRANCH  38  39
BRANCH  41  42
ATOM     42  O   UNL     1      54.021  14.426  20.555  0.00  0.00    -0.523 OA
ATOM     43  H   UNL     1      54.951  14.677  20.640  0.00  0.00    +0.370 HD
ENDBRANCH  41  42
BRANCH  22  23
ATOM     23  O   UNL     1      51.996  15.093  19.131  0.00  0.00    -0.306 OA
BRANCH  23  24
ATOM     24  C   UNL     1      52.346  16.281  18.419  0.00  0.00    +0.314 C 
ATOM     25  C   UNL     1      52.273  16.013  16.913  0.00  0.00    +0.182 C 
ATOM     28  C   UNL     1      52.590  17.307  16.157  0.00  0.00    +0.201 C 
ATOM     31  C   UNL     1      51.610  18.397  16.601  0.00  0.00    +0.128 C 
ATOM     34  C   UNL     1      51.708  18.573  18.117  0.00  0.00    +0.308 C 
ATOM     37  O   UNL     1      51.433  17.326  18.760  0.00  0.00    -0.417 OA
BRANCH  25  26
ATOM     26  O   UNL     1      50.959  15.567  16.570  0.00  0.00    -0.516 OA
ATOM     27  H   UNL     1      50.714  15.738  15.650  0.00  0.00    +0.375 HD
ENDBRANCH  25  26
BRANCH  28  29
ATOM     29  O   UNL     1      52.455  17.084  14.751  0.00  0.00    -0.533 OA
ATOM     30  H   UNL     1      53.200  16.612  14.355  0.00  0.00    +0.379 HD
ENDBRANCH  28  29
BRANCH  31  32
ATOM     32  O   UNL     1      50.279  18.017  16.248  0.00  0.00    -0.512 OA
ATOM     33  H   UNL     1      49.604  18.325  16.868  0.00  0.00    +0.375 HD
ENDBRANCH  31  32
BRANCH  34  35
ATOM     35  O   UNL     1      50.758  19.550  18.546  0.00  0.00    -0.539 OA
ATOM     36  H   UNL     1      50.343  20.039  17.823  0.00  0.00    +0.391 HD
ENDBRANCH  34  35
ENDBRANCH  23  24
ENDBRANCH  22  23
BRANCH  44  45
ATOM     45  C   UNL     1      53.476  12.275  22.356  0.00  0.00    +0.201 C 
BRANCH  45  46
ATOM     46  O   UNL     1      53.446  11.380  21.243  0.00  0.00    -0.561 OA
ATOM     47  H   UNL     1      54.319  11.069  20.964  0.00  0.00    +0.383 HD
ENDBRANCH  45  46
ENDBRANCH  44  45
TORSDOF 11
ENDMDL
MODEL 8
REMARK VINA RESULT:      -2.0      2.427     10.662
REMARK  Name = ZINC95486005
REMARK  15 active torsions:
REMARK  status: ('A' for Active; 'I' for Inactive)
REMARK    1  A    between atoms: C1_1  and  C2_2
REMARK    2  A    between atoms: C6_7  and  C34_63
REMARK    3  A    between atoms: C7_9  and  C33_62
REMARK    4  A    between atoms: C16_23  and  C32_60
REMARK    5  A    between atoms: C19_26  and  C21_29
REMARK    6  A    between atoms: C22_31  and  O6_44
REMARK    7  A    between atoms: C23_33  and  O5_43
REMARK    8  A    between atoms: C24_35  and  O4_42
REMARK    9  A    between atoms: C25_37  and  C26_40
REMARK   10  A    between atoms: C26_40  and  O3_41
REMARK   11  A    between atoms: O6_44  and  C27_45
REMARK   12  A    between atoms: C28_47  and  O11_59
REMARK   13  A    between atoms: C29_49  and  O10_58
REMARK   14  A    between atoms: C30_51  and  O9_57
REMARK   15  A    between atoms: C31_53  and  O8_56
REMARK                            x       y       z     vdW  Elec       q    Type
REMARK                         _______ _______ _______ _____ _____    ______ ____
ROOT
ATOM     21  C   UNL     1      43.703  18.953  20.011  0.00  0.00    +0.174 C 
ATOM     22  C   UNL     1      43.495  20.442  19.722  0.00  0.00    +0.160 C 
ATOM     38  C   UNL     1      42.328  20.607  18.744  0.00  0.00    +0.161 C 
ATOM     41  C   UNL     1      41.079  19.952  19.342  0.00  0.00    +0.117 C 
ATOM     44  C   UNL     1      41.380  18.482  19.645  0.00  0.00    +0.129 C 
ATOM     48  O   UNL     1      42.496  18.398  20.535  0.00  0.00    -0.337 OA
ENDROOT
BRANCH  21  20
ATOM      1  C   UNL     1      50.907  12.921  12.841  0.00  0.00    +0.026 C 
ATOM      2  C   UNL     1      49.895  12.232  13.760  0.00  0.00    -0.050 C 
ATOM      3  C   UNL     1      48.587  13.028  13.768  0.00  0.00    +0.025 C 
ATOM      4  C   UNL     1      47.606  12.363  14.741  0.00  0.00    +0.000 C 
ATOM      5  C   UNL     1      48.253  12.269  16.120  0.00  0.00    +0.270 C 
ATOM      6  O   UNL     1      49.491  11.569  16.048  0.00  0.00    -0.353 OA
ATOM      7  C   UNL     1      47.295  11.535  17.089  0.00  0.00    -0.006 C 
ATOM      8  C   UNL     1      47.957  10.279  17.658  0.00  0.00    +0.051 C 
ATOM      9  C   UNL     1      47.059  12.575  18.191  0.00  0.00    -0.092 C 
ATOM     10  C   UNL     1      48.093  12.418  19.308  0.00  0.00    +0.049 C 
ATOM     11  C   UNL     1      45.650  12.634  18.750  0.00  0.00    +0.035 C 
ATOM     12  C   UNL     1      45.594  13.805  19.747  0.00  0.00    +0.033 C 
ATOM     13  C   UNL     1      45.984  15.113  19.073  0.00  0.00    +0.008 C 
ATOM     14  C   UNL     1      47.373  15.009  18.418  0.00  0.00    -0.005 C 
ATOM     15  C   UNL     1      47.674  16.337  17.765  0.00  0.00    +0.362 C 
ATOM     16  O   UNL     1      47.995  16.404  16.603  0.00  0.00    -0.437 OA
ATOM     17  C   UNL     1      47.559  17.581  18.619  0.00  0.00    +0.021 C 
ATOM     18  C   UNL     1      46.192  17.590  19.315  0.00  0.00    +0.000 C 
ATOM     19  C   UNL     1      46.151  18.757  20.304  0.00  0.00    +0.041 C 
ATOM     20  C   UNL     1      44.828  18.784  21.033  0.00  0.00    +0.027 C 
ATOM     49  C   UNL     1      44.634  17.470  21.794  0.00  0.00    +0.030 C 
ATOM     50  C   UNL     1      44.650  16.306  20.803  0.00  0.00    +0.023 C 
ATOM     51  C   UNL     1      45.993  16.269  20.069  0.00  0.00    -0.048 C 
ATOM     52  C   UNL     1      47.125  16.068  21.077  0.00  0.00    +0.033 C 
ATOM     53  C   UNL     1      47.299  13.894  17.401  0.00  0.00    +0.163 C 
ATOM     54  O   UNL     1      48.469  13.598  16.648  0.00  0.00    -0.358 OA
ATOM     55  C   UNL     1      50.457  12.170  15.183  0.00  0.00    +0.218 C 
ENDBRANCH  21  20
BRANCH  38  39
ATOM     39  O   UNL     1      42.081  21.998  18.524  0.00  0.00    -0.550 OA
ATOM     40  H   UNL     1      41.175  22.198  18.252  0.00  0.00    +0.380 HD
ENDBRANCH  38  39
BRANCH  41  42
ATOM     42  O   UNL     1      40.717  20.625  20.549  0.00  0.00    -0.523 OA
ATOM     43  H   UNL     1      40.581  21.577  20.443  0.00  0.00    +0.370 HD
ENDBRANCH  41  42
BRANCH  22  23
ATOM     23  O   UNL     1      43.200  21.129  20.940  0.00  0.00    -0.306 OA
BRANCH  23  24
ATOM     24  C   UNL     1      43.712  22.462  20.996  0.00  0.00    +0.314 C 
ATOM     25  C   UNL     1      45.073  22.456  21.699  0.00  0.00    +0.182 C 
ATOM     28  C   UNL     1      45.642  23.879  21.700  0.00  0.00    +0.201 C 
ATOM     31  C   UNL     1      45.737  24.380  20.256  0.00  0.00    +0.128 C 
ATOM     34  C   UNL     1      44.352  24.310  19.608  0.00  0.00    +0.308 C 
ATOM     37  O   UNL     1      43.866  22.967  19.668  0.00  0.00    -0.417 OA
BRANCH  25  26
ATOM     26  O   UNL     1      45.966  21.583  21.006  0.00  0.00    -0.516 OA
ATOM     27  H   UNL     1      46.545  21.071  21.587  0.00  0.00    +0.375 HD
ENDBRANCH  25  26
BRANCH  28  29
ATOM     29  O   UNL     1      46.943  23.871  22.292  0.00  0.00    -0.533 OA
ATOM     30  H   UNL     1      46.950  24.104  23.230  0.00  0.00    +0.379 HD
ENDBRANCH  28  29
BRANCH  31  32
ATOM     32  O   UNL     1      46.649  23.559  19.524  0.00  0.00    -0.512 OA
ATOM     33  H   UNL     1      47.420  24.034  19.184  0.00  0.00    +0.375 HD
ENDBRANCH  31  32
BRANCH  34  35
ATOM     35  O   UNL     1      44.443  24.724  18.244  0.00  0.00    -0.539 OA
ATOM     36  H   UNL     1      43.879  24.220  17.641  0.00  0.00    +0.391 HD
ENDBRANCH  34  35
ENDBRANCH  23  24
ENDBRANCH  22  23
BRANCH  44  45
ATOM     45  C   UNL     1      40.157  17.834  20.297  0.00  0.00    +0.201 C 
BRANCH  45  46
ATOM     46  O   UNL     1      40.281  17.907  21.719  0.00  0.00    -0.561 OA
ATOM     47  H   UNL     1      39.507  17.582  22.198  0.00  0.00    +0.383 HD
ENDBRANCH  45  46
ENDBRANCH  44  45
TORSDOF 11
ENDMDL
