MODEL 1
REMARK VINA RESULT:      -5.2      0.000      0.000
REMARK  Name = ZINC00265517
REMARK  2 active torsions:
REMARK  status: ('A' for Active; 'I' for Inactive)
REMARK    1  A    between atoms: C1_1  and  O1_2
REMARK    2  A    between atoms: O1_2  and  C2_3
REMARK                            x       y       z     vdW  Elec       q    Type
REMARK                         _______ _______ _______ _____ _____    ______ ____
ROOT
ATOM      3  C   UNL     1      43.316  20.151  20.133  0.00  0.00    +0.210 A 
ATOM      4  C   UNL     1      44.299  21.089  20.511  0.00  0.00    -0.137 A 
ATOM      5  C   UNL     1      45.447  20.694  21.216  0.00  0.00    +0.054 A 
ATOM      6  C   UNL     1      46.376  21.627  21.565  0.00  0.00    +0.011 A 
ATOM      7  C   UNL     1      46.202  22.968  21.231  0.00  0.00    +0.053 A 
ATOM      8  C   UNL     1      45.102  23.385  20.548  0.00  0.00    +0.041 A 
ATOM      9  C   UNL     1      44.118  22.453  20.169  0.00  0.00    +0.187 A 
ATOM     10  N   UNL     1      43.032  22.847  19.498  0.00  0.00    -0.476 NA
ATOM     11  C   UNL     1      42.093  21.995  19.129  0.00  0.00    +0.313 A 
ATOM     12  O   UNL     1      40.932  22.151  18.459  0.00  0.00    -0.193 OA
ATOM     13  C   UNL     1      40.303  20.972  18.299  0.00  0.00    +0.249 A 
ATOM     14  C   UNL     1      41.010  19.988  18.869  0.00  0.00    -0.031 A 
ATOM     15  C   UNL     1      42.210  20.620  19.431  0.00  0.00    -0.202 A 
ENDROOT
BRANCH   3   2
ATOM      1  C   UNL     1      42.725  18.360  21.576  0.00  0.00    +0.246 C 
ATOM      2  O   UNL     1      43.446  18.837  20.438  0.00  0.00    -0.326 OA
ENDBRANCH   3   2
TORSDOF 1
ENDMDL
MODEL 2
REMARK VINA RESULT:      -5.0      1.500      4.254
REMARK  Name = ZINC00265517
REMARK  2 active torsions:
REMARK  status: ('A' for Active; 'I' for Inactive)
REMARK    1  A    between atoms: C1_1  and  O1_2
REMARK    2  A    between atoms: O1_2  and  C2_3
REMARK                            x       y       z     vdW  Elec       q    Type
REMARK                         _______ _______ _______ _____ _____    ______ ____
ROOT
ATOM      3  C   UNL     1      43.607  20.310  20.199  0.00  0.00    +0.210 A 
ATOM      4  C   UNL     1      42.399  20.572  19.519  0.00  0.00    -0.137 A 
ATOM      5  C   UNL     1      41.501  19.539  19.209  0.00  0.00    +0.054 A 
ATOM      6  C   UNL     1      40.344  19.829  18.551  0.00  0.00    +0.011 A 
ATOM      7  C   UNL     1      40.041  21.138  18.182  0.00  0.00    +0.053 A 
ATOM      8  C   UNL     1      40.889  22.162  18.466  0.00  0.00    +0.041 A 
ATOM      9  C   UNL     1      42.095  21.906  19.144  0.00  0.00    +0.187 A 
ATOM     10  N   UNL     1      42.939  22.901  19.431  0.00  0.00    -0.476 NA
ATOM     11  C   UNL     1      44.077  22.690  20.066  0.00  0.00    +0.313 A 
ATOM     12  O   UNL     1      45.070  23.516  20.458  0.00  0.00    -0.193 OA
ATOM     13  C   UNL     1      46.039  22.837  21.100  0.00  0.00    +0.249 A 
ATOM     14  C   UNL     1      45.740  21.533  21.146  0.00  0.00    -0.031 A 
ATOM     15  C   UNL     1      44.442  21.388  20.475  0.00  0.00    -0.202 A 
ENDROOT
BRANCH   3   2
ATOM      1  C   UNL     1      44.790  18.312  19.696  0.00  0.00    +0.246 C 
ATOM      2  O   UNL     1      43.940  19.051  20.576  0.00  0.00    -0.326 OA
ENDBRANCH   3   2
TORSDOF 1
ENDMDL
MODEL 3
REMARK VINA RESULT:      -4.9      1.857      3.426
REMARK  Name = ZINC00265517
REMARK  2 active torsions:
REMARK  status: ('A' for Active; 'I' for Inactive)
REMARK    1  A    between atoms: C1_1  and  O1_2
REMARK    2  A    between atoms: O1_2  and  C2_3
REMARK                            x       y       z     vdW  Elec       q    Type
REMARK                         _______ _______ _______ _____ _____    ______ ____
ROOT
ATOM      3  C   UNL     1      43.368  20.755  19.746  0.00  0.00    +0.210 A 
ATOM      4  C   UNL     1      43.615  19.660  20.601  0.00  0.00    -0.137 A 
ATOM      5  C   UNL     1      44.912  19.365  21.048  0.00  0.00    +0.054 A 
ATOM      6  C   UNL     1      45.114  18.300  21.872  0.00  0.00    +0.011 A 
ATOM      7  C   UNL     1      44.048  17.500  22.279  0.00  0.00    +0.053 A 
ATOM      8  C   UNL     1      42.778  17.757  21.865  0.00  0.00    +0.041 A 
ATOM      9  C   UNL     1      42.527  18.848  21.012  0.00  0.00    +0.187 A 
ATOM     10  N   UNL     1      41.286  19.114  20.596  0.00  0.00    -0.476 NA
ATOM     11  C   UNL     1      41.021  20.131  19.796  0.00  0.00    +0.313 A 
ATOM     12  O   UNL     1      39.873  20.589  19.254  0.00  0.00    -0.193 OA
ATOM     13  C   UNL     1      40.096  21.684  18.504  0.00  0.00    +0.249 A 
ATOM     14  C   UNL     1      41.400  21.989  18.503  0.00  0.00    -0.031 A 
ATOM     15  C   UNL     1      42.054  20.985  19.352  0.00  0.00    -0.202 A 
ENDROOT
BRANCH   3   2
ATOM      1  C   UNL     1      44.542  22.802  20.011  0.00  0.00    +0.246 C 
ATOM      2  O   UNL     1      44.376  21.558  19.327  0.00  0.00    -0.326 OA
ENDBRANCH   3   2
TORSDOF 1
ENDMDL
MODEL 4
REMARK VINA RESULT:      -4.9     20.898     22.486
REMARK  Name = ZINC00265517
REMARK  2 active torsions:
REMARK  status: ('A' for Active; 'I' for Inactive)
REMARK    1  A    between atoms: C1_1  and  O1_2
REMARK    2  A    between atoms: O1_2  and  C2_3
REMARK                            x       y       z     vdW  Elec       q    Type
REMARK                         _______ _______ _______ _____ _____    ______ ____
ROOT
ATOM      3  C   UNL     1      54.543  32.436   4.605  0.00  0.00    +0.210 A 
ATOM      4  C   UNL     1      53.540  33.035   5.396  0.00  0.00    -0.137 A 
ATOM      5  C   UNL     1      52.194  32.654   5.274  0.00  0.00    +0.054 A 
ATOM      6  C   UNL     1      51.252  33.253   6.053  0.00  0.00    +0.011 A 
ATOM      7  C   UNL     1      51.606  34.240   6.971  0.00  0.00    +0.053 A 
ATOM      8  C   UNL     1      52.900  34.633   7.115  0.00  0.00    +0.041 A 
ATOM      9  C   UNL     1      53.905  34.039   6.329  0.00  0.00    +0.187 A 
ATOM     10  N   UNL     1      55.181  34.413   6.459  0.00  0.00    -0.476 NA
ATOM     11  C   UNL     1      56.144  33.873   5.734  0.00  0.00    +0.313 A 
ATOM     12  O   UNL     1      57.476  34.083   5.688  0.00  0.00    -0.193 OA
ATOM     13  C   UNL     1      58.062  33.269   4.789  0.00  0.00    +0.249 A 
ATOM     14  C   UNL     1      57.144  32.500   4.191  0.00  0.00    -0.031 A 
ATOM     15  C   UNL     1      55.854  32.863   4.791  0.00  0.00    -0.202 A 
ENDROOT
BRANCH   3   2
ATOM      1  C   UNL     1      54.092  31.883   2.340  0.00  0.00    +0.246 C 
ATOM      2  O   UNL     1      54.241  31.472   3.701  0.00  0.00    -0.326 OA
ENDBRANCH   3   2
TORSDOF 1
ENDMDL
MODEL 5
REMARK VINA RESULT:      -4.7     21.015     22.382
REMARK  Name = ZINC00265517
REMARK  2 active torsions:
REMARK  status: ('A' for Active; 'I' for Inactive)
REMARK    1  A    between atoms: C1_1  and  O1_2
REMARK    2  A    between atoms: O1_2  and  C2_3
REMARK                            x       y       z     vdW  Elec       q    Type
REMARK                         _______ _______ _______ _____ _____    ______ ____
ROOT
ATOM      3  C   UNL     1      54.178  32.317   4.385  0.00  0.00    +0.210 A 
ATOM      4  C   UNL     1      55.553  32.604   4.518  0.00  0.00    -0.137 A 
ATOM      5  C   UNL     1      56.500  32.043   3.647  0.00  0.00    +0.054 A 
ATOM      6  C   UNL     1      57.819  32.341   3.805  0.00  0.00    +0.011 A 
ATOM      7  C   UNL     1      58.241  33.196   4.821  0.00  0.00    +0.053 A 
ATOM      8  C   UNL     1      57.351  33.756   5.683  0.00  0.00    +0.041 A 
ATOM      9  C   UNL     1      55.978  33.474   5.554  0.00  0.00    +0.187 A 
ATOM     10  N   UNL     1      55.091  34.017   6.392  0.00  0.00    -0.476 NA
ATOM     11  C   UNL     1      53.797  33.770   6.295  0.00  0.00    +0.313 A 
ATOM     12  O   UNL     1      52.732  34.191   7.010  0.00  0.00    -0.193 OA
ATOM     13  C   UNL     1      51.588  33.678   6.519  0.00  0.00    +0.249 A 
ATOM     14  C   UNL     1      51.846  32.884   5.472  0.00  0.00    -0.031 A 
ATOM     15  C   UNL     1      53.302  32.917   5.284  0.00  0.00    -0.202 A 
ENDROOT
BRANCH   3   2
ATOM      1  C   UNL     1      53.207  32.105   2.228  0.00  0.00    +0.246 C 
ATOM      2  O   UNL     1      53.725  31.491   3.410  0.00  0.00    -0.326 OA
ENDBRANCH   3   2
TORSDOF 1
ENDMDL
MODEL 6
REMARK VINA RESULT:      -4.6      1.925      4.950
REMARK  Name = ZINC00265517
REMARK  2 active torsions:
REMARK  status: ('A' for Active; 'I' for Inactive)
REMARK    1  A    between atoms: C1_1  and  O1_2
REMARK    2  A    between atoms: O1_2  and  C2_3
REMARK                            x       y       z     vdW  Elec       q    Type
REMARK                         _______ _______ _______ _____ _____    ______ ____
ROOT
ATOM      3  C   UNL     1      44.470  21.449  19.777  0.00  0.00    +0.210 A 
ATOM      4  C   UNL     1      43.122  21.194  19.446  0.00  0.00    -0.137 A 
ATOM      5  C   UNL     1      42.278  22.221  18.995  0.00  0.00    +0.054 A 
ATOM      6  C   UNL     1      40.983  21.939  18.684  0.00  0.00    +0.011 A 
ATOM      7  C   UNL     1      40.484  20.644  18.807  0.00  0.00    +0.053 A 
ATOM      8  C   UNL     1      41.274  19.625  19.241  0.00  0.00    +0.041 A 
ATOM      9  C   UNL     1      42.619  19.874  19.573  0.00  0.00    +0.187 A 
ATOM     10  N   UNL     1      43.409  18.885  20.001  0.00  0.00    -0.476 NA
ATOM     11  C   UNL     1      44.674  19.090  20.319  0.00  0.00    +0.313 A 
ATOM     12  O   UNL     1      45.646  18.267  20.765  0.00  0.00    -0.193 OA
ATOM     13  C   UNL     1      46.802  18.935  20.938  0.00  0.00    +0.249 A 
ATOM     14  C   UNL     1      46.642  20.228  20.631  0.00  0.00    -0.031 A 
ATOM     15  C   UNL     1      45.243  20.377  20.210  0.00  0.00    -0.202 A 
ENDROOT
BRANCH   3   2
ATOM      1  C   UNL     1      45.159  23.435  20.882  0.00  0.00    +0.246 C 
ATOM      2  O   UNL     1      44.994  22.695  19.671  0.00  0.00    -0.326 OA
ENDBRANCH   3   2
TORSDOF 1
ENDMDL
MODEL 7
REMARK VINA RESULT:      -4.6      9.168      9.779
REMARK  Name = ZINC00265517
REMARK  2 active torsions:
REMARK  status: ('A' for Active; 'I' for Inactive)
REMARK    1  A    between atoms: C1_1  and  O1_2
REMARK    2  A    between atoms: O1_2  and  C2_3
REMARK                            x       y       z     vdW  Elec       q    Type
REMARK                         _______ _______ _______ _____ _____    ______ ____
ROOT
ATOM      3  C   UNL     1      52.117  18.635  19.575  0.00  0.00    +0.210 A 
ATOM      4  C   UNL     1      51.985  19.075  18.241  0.00  0.00    -0.137 A 
ATOM      5  C   UNL     1      51.804  18.161  17.190  0.00  0.00    +0.054 A 
ATOM      6  C   UNL     1      51.680  18.621  15.914  0.00  0.00    +0.011 A 
ATOM      7  C   UNL     1      51.731  19.985  15.638  0.00  0.00    +0.053 A 
ATOM      8  C   UNL     1      51.905  20.897  16.632  0.00  0.00    +0.041 A 
ATOM      9  C   UNL     1      52.037  20.465  17.965  0.00  0.00    +0.187 A 
ATOM     10  N   UNL     1      52.208  21.347  18.952  0.00  0.00    -0.476 NA
ATOM     11  C   UNL     1      52.335  20.970  20.211  0.00  0.00    +0.313 A 
ATOM     12  O   UNL     1      52.514  21.661  21.357  0.00  0.00    -0.193 OA
ATOM     13  C   UNL     1      52.572  20.833  22.417  0.00  0.00    +0.249 A 
ATOM     14  C   UNL     1      52.450  19.561  22.019  0.00  0.00    -0.031 A 
ATOM     15  C   UNL     1      52.287  19.602  20.560  0.00  0.00    -0.202 A 
ENDROOT
BRANCH   3   2
ATOM      1  C   UNL     1      53.325  16.642  20.029  0.00  0.00    +0.246 C 
ATOM      2  O   UNL     1      52.074  17.317  19.887  0.00  0.00    -0.326 OA
ENDBRANCH   3   2
TORSDOF 1
ENDMDL
MODEL 8
REMARK VINA RESULT:      -4.5      1.933      3.123
REMARK  Name = ZINC00265517
REMARK  2 active torsions:
REMARK  status: ('A' for Active; 'I' for Inactive)
REMARK    1  A    between atoms: C1_1  and  O1_2
REMARK    2  A    between atoms: O1_2  and  C2_3
REMARK                            x       y       z     vdW  Elec       q    Type
REMARK                         _______ _______ _______ _____ _____    ______ ____
ROOT
ATOM      3  C   UNL     1      43.942  22.100  19.700  0.00  0.00    +0.210 A 
ATOM      4  C   UNL     1      45.054  21.255  19.897  0.00  0.00    -0.137 A 
ATOM      5  C   UNL     1      46.265  21.753  20.404  0.00  0.00    +0.054 A 
ATOM      6  C   UNL     1      47.318  20.908  20.582  0.00  0.00    +0.011 A 
ATOM      7  C   UNL     1      47.209  19.555  20.267  0.00  0.00    +0.053 A 
ATOM      8  C   UNL     1      46.052  19.039  19.773  0.00  0.00    +0.041 A 
ATOM      9  C   UNL     1      44.939  19.878  19.574  0.00  0.00    +0.187 A 
ATOM     10  N   UNL     1      43.795  19.388  19.091  0.00  0.00    -0.476 NA
ATOM     11  C   UNL     1      42.736  20.151  18.894  0.00  0.00    +0.313 A 
ATOM     12  O   UNL     1      41.498  19.889  18.425  0.00  0.00    -0.193 OA
ATOM     13  C   UNL     1      40.738  21.001  18.420  0.00  0.00    +0.249 A 
ATOM     14  C   UNL     1      41.443  22.047  18.868  0.00  0.00    -0.031 A 
ATOM     15  C   UNL     1      42.777  21.530  19.199  0.00  0.00    -0.202 A 
ENDROOT
BRANCH   3   2
ATOM      1  C   UNL     1      44.380  24.306  18.935  0.00  0.00    +0.246 C 
ATOM      2  O   UNL     1      44.006  23.422  19.994  0.00  0.00    -0.326 OA
ENDBRANCH   3   2
TORSDOF 1
ENDMDL
MODEL 9
REMARK VINA RESULT:      -4.5     21.250     22.520
REMARK  Name = ZINC00265517
REMARK  2 active torsions:
REMARK  status: ('A' for Active; 'I' for Inactive)
REMARK    1  A    between atoms: C1_1  and  O1_2
REMARK    2  A    between atoms: O1_2  and  C2_3
REMARK                            x       y       z     vdW  Elec       q    Type
REMARK                         _______ _______ _______ _____ _____    ______ ____
ROOT
ATOM      3  C   UNL     1      53.273  33.429   5.595  0.00  0.00    +0.210 A 
ATOM      4  C   UNL     1      52.460  33.062   4.502  0.00  0.00    -0.137 A 
ATOM      5  C   UNL     1      51.060  33.120   4.587  0.00  0.00    +0.054 A 
ATOM      6  C   UNL     1      50.305  32.758   3.512  0.00  0.00    +0.011 A 
ATOM      7  C   UNL     1      50.905  32.332   2.330  0.00  0.00    +0.053 A 
ATOM      8  C   UNL     1      52.259  32.264   2.213  0.00  0.00    +0.041 A 
ATOM      9  C   UNL     1      53.075  32.629   3.300  0.00  0.00    +0.187 A 
ATOM     10  N   UNL     1      54.406  32.568   3.202  0.00  0.00    -0.476 NA
ATOM     11  C   UNL     1      55.196  32.904   4.205  0.00  0.00    +0.313 A 
ATOM     12  O   UNL     1      56.538  32.924   4.341  0.00  0.00    -0.193 OA
ATOM     13  C   UNL     1      56.894  33.364   5.563  0.00  0.00    +0.249 A 
ATOM     14  C   UNL     1      55.805  33.638   6.293  0.00  0.00    -0.031 A 
ATOM     15  C   UNL     1      54.652  33.350   5.430  0.00  0.00    -0.202 A 
ENDROOT
BRANCH   3   2
ATOM      1  C   UNL     1      52.638  35.261   6.966  0.00  0.00    +0.246 C 
ATOM      2  O   UNL     1      52.730  33.849   6.763  0.00  0.00    -0.326 OA
ENDBRANCH   3   2
TORSDOF 1
ENDMDL
