MODEL 1
REMARK VINA RESULT:      -6.5      0.000      0.000
REMARK  Name = ZINC95485910
REMARK  2 active torsions:
REMARK  status: ('A' for Active; 'I' for Inactive)
REMARK    1  A    between atoms: C6_6  and  O5_25
REMARK    2  A    between atoms: C7_7  and  O4_24
REMARK                            x       y       z     vdW  Elec       q    Type
REMARK                         _______ _______ _______ _____ _____    ______ ____
ROOT
ATOM      1  C   UNL     1      45.701  21.850  19.867  0.00  0.00    +0.020 A 
ATOM      2  C   UNL     1      46.844  21.145  19.674  0.00  0.00    +0.077 A 
ATOM      3  C   UNL     1      46.830  19.922  18.981  0.00  0.00    -0.102 A 
ATOM      4  C   UNL     1      48.079  19.165  18.781  0.00  0.00    +0.018 A 
ATOM      5  C   UNL     1      49.297  19.627  19.269  0.00  0.00    +0.014 A 
ATOM      6  C   UNL     1      50.445  18.883  19.059  0.00  0.00    +0.126 A 
ATOM      9  C   UNL     1      50.387  17.673  18.360  0.00  0.00    +0.070 A 
ATOM     12  C   UNL     1      49.185  17.204  17.871  0.00  0.00    +0.097 A 
ATOM     13  C   UNL     1      48.019  17.943  18.076  0.00  0.00    -0.140 A 
ATOM     14  C   UNL     1      46.721  17.480  17.575  0.00  0.00    +0.560 A 
ATOM     15  N   UNL     1      45.611  18.211  17.788  0.00  0.00    -0.634 N 
ATOM     16  H   UNL     1      44.765  17.884  17.448  0.00  0.00    +0.416 HD
ATOM     17  O   UNL     1      46.647  16.429  16.963  0.00  0.00    -0.514 OA
ATOM     18  C   UNL     1      45.637  19.408  18.473  0.00  0.00    +0.204 A 
ATOM     19  C   UNL     1      44.440  20.134  18.669  0.00  0.00    -0.066 A 
ATOM     20  C   UNL     1      43.216  19.651  18.179  0.00  0.00    +0.039 A 
ATOM     21  C   UNL     1      42.073  20.369  18.381  0.00  0.00    +0.050 A 
ATOM     22  O   UNL     1      40.782  20.119  18.009  0.00  0.00    -0.304 OA
ATOM     23  C   UNL     1      39.972  20.978  18.832  0.00  0.00    +0.440 C 
ATOM     24  O   UNL     1      40.837  22.089  19.130  0.00  0.00    -0.303 OA
ATOM     25  C   UNL     1      42.106  21.589  19.076  0.00  0.00    +0.060 A 
ATOM     26  C   UNL     1      43.284  22.080  19.563  0.00  0.00    +0.050 A 
ATOM     27  C   UNL     1      44.475  21.363  19.371  0.00  0.00    -0.000 A 
ENDROOT
BRANCH   6   7
ATOM      7  O   UNL     1      51.635  19.332  19.533  0.00  0.00    -0.483 OA
ATOM      8  H   UNL     1      52.086  18.708  20.118  0.00  0.00    +0.396 HD
ENDBRANCH   6   7
BRANCH   9  10
ATOM     10  O   UNL     1      51.524  16.954  18.161  0.00  0.00    -0.481 OA
ATOM     11  H   UNL     1      52.326  17.493  18.113  0.00  0.00    +0.391 HD
ENDBRANCH   9  10
TORSDOF 2
ENDMDL
MODEL 2
REMARK VINA RESULT:      -6.5      1.781      7.680
REMARK  Name = ZINC95485910
REMARK  2 active torsions:
REMARK  status: ('A' for Active; 'I' for Inactive)
REMARK    1  A    between atoms: C6_6  and  O5_25
REMARK    2  A    between atoms: C7_7  and  O4_24
REMARK                            x       y       z     vdW  Elec       q    Type
REMARK                         _______ _______ _______ _____ _____    ______ ____
ROOT
ATOM      1  C   UNL     1      46.498  17.950  18.410  0.00  0.00    +0.020 A 
ATOM      2  C   UNL     1      45.258  18.496  18.353  0.00  0.00    +0.077 A 
ATOM      3  C   UNL     1      45.023  19.804  18.812  0.00  0.00    -0.102 A 
ATOM      4  C   UNL     1      43.669  20.385  18.747  0.00  0.00    +0.018 A 
ATOM      5  C   UNL     1      42.591  19.666  18.241  0.00  0.00    +0.014 A 
ATOM      6  C   UNL     1      41.338  20.249  18.201  0.00  0.00    +0.126 A 
ATOM      9  C   UNL     1      41.149  21.555  18.663  0.00  0.00    +0.070 A 
ATOM     12  C   UNL     1      42.209  22.280  19.168  0.00  0.00    +0.097 A 
ATOM     13  C   UNL     1      43.479  21.703  19.216  0.00  0.00    -0.140 A 
ATOM     14  C   UNL     1      44.634  22.437  19.746  0.00  0.00    +0.560 A 
ATOM     15  N   UNL     1      45.847  21.858  19.783  0.00  0.00    -0.634 N 
ATOM     16  H   UNL     1      46.595  22.362  20.138  0.00  0.00    +0.416 HD
ATOM     17  O   UNL     1      44.493  23.576  20.154  0.00  0.00    -0.514 OA
ATOM     18  C   UNL     1      46.065  20.572  19.333  0.00  0.00    +0.204 A 
ATOM     19  C   UNL     1      47.361  20.012  19.398  0.00  0.00    -0.066 A 
ATOM     20  C   UNL     1      48.438  20.747  19.919  0.00  0.00    +0.039 A 
ATOM     21  C   UNL     1      49.681  20.185  19.972  0.00  0.00    +0.050 A 
ATOM     22  O   UNL     1      50.870  20.684  20.425  0.00  0.00    -0.304 OA
ATOM     23  C   UNL     1      51.719  19.538  20.618  0.00  0.00    +0.440 C 
ATOM     24  O   UNL     1      51.217  18.572  19.677  0.00  0.00    -0.303 OA
ATOM     25  C   UNL     1      49.897  18.877  19.509  0.00  0.00    +0.060 A 
ATOM     26  C   UNL     1      48.866  18.141  18.997  0.00  0.00    +0.050 A 
ATOM     27  C   UNL     1      47.577  18.693  18.932  0.00  0.00    -0.000 A 
ENDROOT
BRANCH   6   7
ATOM      7  O   UNL     1      40.284  19.549  17.706  0.00  0.00    -0.483 OA
ATOM      8  H   UNL     1      39.977  18.839  18.286  0.00  0.00    +0.396 HD
ENDBRANCH   6   7
BRANCH   9  10
ATOM     10  O   UNL     1      39.911  22.115  18.616  0.00  0.00    -0.481 OA
ATOM     11  H   UNL     1      39.556  22.360  19.482  0.00  0.00    +0.391 HD
ENDBRANCH   9  10
TORSDOF 2
ENDMDL
MODEL 3
REMARK VINA RESULT:      -6.5      2.584      6.579
REMARK  Name = ZINC95485910
REMARK  2 active torsions:
REMARK  status: ('A' for Active; 'I' for Inactive)
REMARK    1  A    between atoms: C6_6  and  O5_25
REMARK    2  A    between atoms: C7_7  and  O4_24
REMARK                            x       y       z     vdW  Elec       q    Type
REMARK                         _______ _______ _______ _____ _____    ______ ____
ROOT
ATOM      1  C   UNL     1      49.052  18.587  18.607  0.00  0.00    +0.020 A 
ATOM      2  C   UNL     1      48.365  19.565  19.249  0.00  0.00    +0.077 A 
ATOM      3  C   UNL     1      46.981  19.450  19.468  0.00  0.00    -0.102 A 
ATOM      4  C   UNL     1      46.245  20.521  20.165  0.00  0.00    +0.018 A 
ATOM      5  C   UNL     1      46.887  21.669  20.619  0.00  0.00    +0.014 A 
ATOM      6  C   UNL     1      46.157  22.650  21.267  0.00  0.00    +0.126 A 
ATOM      9  C   UNL     1      44.783  22.493  21.468  0.00  0.00    +0.070 A 
ATOM     12  C   UNL     1      44.134  21.360  21.023  0.00  0.00    +0.097 A 
ATOM     13  C   UNL     1      44.857  20.363  20.366  0.00  0.00    -0.140 A 
ATOM     14  C   UNL     1      44.207  19.142  19.876  0.00  0.00    +0.560 A 
ATOM     15  N   UNL     1      44.927  18.197  19.245  0.00  0.00    -0.634 N 
ATOM     16  H   UNL     1      44.475  17.400  18.928  0.00  0.00    +0.416 HD
ATOM     17  O   UNL     1      43.010  18.985  20.040  0.00  0.00    -0.514 OA
ATOM     18  C   UNL     1      46.284  18.323  19.032  0.00  0.00    +0.204 A 
ATOM     19  C   UNL     1      46.991  17.299  18.361  0.00  0.00    -0.066 A 
ATOM     20  C   UNL     1      46.329  16.149  17.900  0.00  0.00    +0.039 A 
ATOM     21  C   UNL     1      47.031  15.174  17.255  0.00  0.00    +0.050 A 
ATOM     22  O   UNL     1      46.625  13.982  16.721  0.00  0.00    -0.304 OA
ATOM     23  C   UNL     1      47.681  13.583  15.828  0.00  0.00    +0.440 C 
ATOM     24  O   UNL     1      48.857  14.197  16.383  0.00  0.00    -0.303 OA
ATOM     25  C   UNL     1      48.413  15.306  17.044  0.00  0.00    +0.060 A 
ATOM     26  C   UNL     1      49.081  16.414  17.482  0.00  0.00    +0.050 A 
ATOM     27  C   UNL     1      48.384  17.434  18.149  0.00  0.00    -0.000 A 
ENDROOT
BRANCH   6   7
ATOM      7  O   UNL     1      46.781  23.771  21.711  0.00  0.00    -0.483 OA
ATOM      8  H   UNL     1      47.628  23.603  22.148  0.00  0.00    +0.396 HD
ENDBRANCH   6   7
BRANCH   9  10
ATOM     10  O   UNL     1      44.080  23.466  22.108  0.00  0.00    -0.481 OA
ATOM     11  H   UNL     1      44.217  24.353  21.747  0.00  0.00    +0.391 HD
ENDBRANCH   9  10
TORSDOF 2
ENDMDL
MODEL 4
REMARK VINA RESULT:      -6.3      1.739      7.397
REMARK  Name = ZINC95485910
REMARK  2 active torsions:
REMARK  status: ('A' for Active; 'I' for Inactive)
REMARK    1  A    between atoms: C6_6  and  O5_25
REMARK    2  A    between atoms: C7_7  and  O4_24
REMARK                            x       y       z     vdW  Elec       q    Type
REMARK                         _______ _______ _______ _____ _____    ______ ____
ROOT
ATOM      1  C   UNL     1      49.096  20.756  18.962  0.00  0.00    +0.020 A 
ATOM      2  C   UNL     1      47.754  20.890  19.106  0.00  0.00    +0.077 A 
ATOM      3  C   UNL     1      46.939  19.773  19.356  0.00  0.00    -0.102 A 
ATOM      4  C   UNL     1      45.481  19.933  19.508  0.00  0.00    +0.018 A 
ATOM      5  C   UNL     1      44.871  21.179  19.406  0.00  0.00    +0.014 A 
ATOM      6  C   UNL     1      43.499  21.283  19.554  0.00  0.00    +0.126 A 
ATOM      9  C   UNL     1      42.726  20.146  19.806  0.00  0.00    +0.070 A 
ATOM     12  C   UNL     1      43.319  18.904  19.910  0.00  0.00    +0.097 A 
ATOM     13  C   UNL     1      44.701  18.784  19.762  0.00  0.00    -0.140 A 
ATOM     14  C   UNL     1      45.372  17.483  19.863  0.00  0.00    +0.560 A 
ATOM     15  N   UNL     1      46.706  17.395  19.714  0.00  0.00    -0.634 N 
ATOM     16  H   UNL     1      47.127  16.525  19.785  0.00  0.00    +0.416 HD
ATOM     17  O   UNL     1      44.718  16.479  20.083  0.00  0.00    -0.514 OA
ATOM     18  C   UNL     1      47.496  18.498  19.465  0.00  0.00    +0.204 A 
ATOM     19  C   UNL     1      48.893  18.347  19.315  0.00  0.00    -0.066 A 
ATOM     20  C   UNL     1      49.495  17.082  19.413  0.00  0.00    +0.039 A 
ATOM     21  C   UNL     1      50.846  16.959  19.264  0.00  0.00    +0.050 A 
ATOM     22  O   UNL     1      51.656  15.859  19.314  0.00  0.00    -0.304 OA
ATOM     23  C   UNL     1      52.888  16.261  18.688  0.00  0.00    +0.440 C 
ATOM     24  O   UNL     1      52.944  17.681  18.912  0.00  0.00    -0.303 OA
ATOM     25  C   UNL     1      51.644  18.087  19.014  0.00  0.00    +0.060 A 
ATOM     26  C   UNL     1      51.084  19.329  18.915  0.00  0.00    +0.050 A 
ATOM     27  C   UNL     1      49.696  19.485  19.062  0.00  0.00    -0.000 A 
ENDROOT
BRANCH   6   7
ATOM      7  O   UNL     1      42.901  22.498  19.455  0.00  0.00    -0.483 OA
ATOM      8  H   UNL     1      42.924  23.015  20.272  0.00  0.00    +0.396 HD
ENDBRANCH   6   7
BRANCH   9  10
ATOM     10  O   UNL     1      41.379  20.265  19.951  0.00  0.00    -0.481 OA
ATOM     11  H   UNL     1      40.872  19.583  19.488  0.00  0.00    +0.391 HD
ENDBRANCH   9  10
TORSDOF 2
ENDMDL
MODEL 5
REMARK VINA RESULT:      -6.2      2.393      7.427
REMARK  Name = ZINC95485910
REMARK  2 active torsions:
REMARK  status: ('A' for Active; 'I' for Inactive)
REMARK    1  A    between atoms: C6_6  and  O5_25
REMARK    2  A    between atoms: C7_7  and  O4_24
REMARK                            x       y       z     vdW  Elec       q    Type
REMARK                         _______ _______ _______ _____ _____    ______ ____
ROOT
ATOM      1  C   UNL     1      46.409  17.891  17.458  0.00  0.00    +0.020 A 
ATOM      2  C   UNL     1      45.938  18.988  18.102  0.00  0.00    +0.077 A 
ATOM      3  C   UNL     1      46.724  19.660  19.055  0.00  0.00    -0.102 A 
ATOM      4  C   UNL     1      46.198  20.849  19.750  0.00  0.00    +0.018 A 
ATOM      5  C   UNL     1      44.922  21.339  19.492  0.00  0.00    +0.014 A 
ATOM      6  C   UNL     1      44.469  22.457  20.168  0.00  0.00    +0.126 A 
ATOM      9  C   UNL     1      45.285  23.097  21.106  0.00  0.00    +0.070 A 
ATOM     12  C   UNL     1      46.553  22.622  21.371  0.00  0.00    +0.097 A 
ATOM     13  C   UNL     1      47.023  21.494  20.697  0.00  0.00    -0.140 A 
ATOM     14  C   UNL     1      48.364  20.955  20.949  0.00  0.00    +0.560 A 
ATOM     15  N   UNL     1      48.792  19.865  20.287  0.00  0.00    -0.634 N 
ATOM     16  H   UNL     1      49.681  19.526  20.471  0.00  0.00    +0.416 HD
ATOM     17  O   UNL     1      49.092  21.496  21.761  0.00  0.00    -0.514 OA
ATOM     18  C   UNL     1      48.010  19.212  19.356  0.00  0.00    +0.204 A 
ATOM     19  C   UNL     1      48.511  18.069  18.692  0.00  0.00    -0.066 A 
ATOM     20  C   UNL     1      49.798  17.581  18.968  0.00  0.00    +0.039 A 
ATOM     21  C   UNL     1      50.260  16.476  18.314  0.00  0.00    +0.050 A 
ATOM     22  O   UNL     1      51.455  15.817  18.404  0.00  0.00    -0.304 OA
ATOM     23  C   UNL     1      51.225  14.525  17.814  0.00  0.00    +0.440 C 
ATOM     24  O   UNL     1      50.163  14.757  16.871  0.00  0.00    -0.303 OA
ATOM     25  C   UNL     1      49.461  15.818  17.366  0.00  0.00    +0.060 A 
ATOM     26  C   UNL     1      48.205  16.272  17.079  0.00  0.00    +0.050 A 
ATOM     27  C   UNL     1      47.703  17.407  17.737  0.00  0.00    -0.000 A 
ENDROOT
BRANCH   6   7
ATOM      7  O   UNL     1      43.223  22.937  19.918  0.00  0.00    -0.483 OA
ATOM      8  H   UNL     1      43.214  23.820  19.524  0.00  0.00    +0.396 HD
ENDBRANCH   6   7
BRANCH   9  10
ATOM     10  O   UNL     1      44.825  24.196  21.761  0.00  0.00    -0.481 OA
ATOM     11  H   UNL     1      44.910  24.144  22.723  0.00  0.00    +0.391 HD
ENDBRANCH   9  10
TORSDOF 2
ENDMDL
MODEL 6
REMARK VINA RESULT:      -6.2      2.530      7.372
REMARK  Name = ZINC95485910
REMARK  2 active torsions:
REMARK  status: ('A' for Active; 'I' for Inactive)
REMARK    1  A    between atoms: C6_6  and  O5_25
REMARK    2  A    between atoms: C7_7  and  O4_24
REMARK                            x       y       z     vdW  Elec       q    Type
REMARK                         _______ _______ _______ _____ _____    ______ ____
ROOT
ATOM      1  C   UNL     1      46.872  21.168  18.731  0.00  0.00    +0.020 A 
ATOM      2  C   UNL     1      45.613  20.841  19.115  0.00  0.00    +0.077 A 
ATOM      3  C   UNL     1      45.380  19.761  19.983  0.00  0.00    -0.102 A 
ATOM      4  C   UNL     1      44.006  19.415  20.392  0.00  0.00    +0.018 A 
ATOM      5  C   UNL     1      42.907  20.135  19.934  0.00  0.00    +0.014 A 
ATOM      6  C   UNL     1      41.635  19.775  20.342  0.00  0.00    +0.126 A 
ATOM      9  C   UNL     1      41.449  18.695  21.210  0.00  0.00    +0.070 A 
ATOM     12  C   UNL     1      42.530  17.972  21.671  0.00  0.00    +0.097 A 
ATOM     13  C   UNL     1      43.818  18.324  21.267  0.00  0.00    -0.140 A 
ATOM     14  C   UNL     1      44.996  17.581  21.732  0.00  0.00    +0.560 A 
ATOM     15  N   UNL     1      46.227  17.939  21.326  0.00  0.00    -0.634 N 
ATOM     16  H   UNL     1      46.990  17.434  21.646  0.00  0.00    +0.416 HD
ATOM     17  O   UNL     1      44.857  16.637  22.489  0.00  0.00    -0.514 OA
ATOM     18  C   UNL     1      46.443  19.000  20.471  0.00  0.00    +0.204 A 
ATOM     19  C   UNL     1      47.759  19.331  20.075  0.00  0.00    -0.066 A 
ATOM     20  C   UNL     1      48.858  18.590  20.538  0.00  0.00    +0.039 A 
ATOM     21  C   UNL     1      50.120  18.927  20.143  0.00  0.00    +0.050 A 
ATOM     22  O   UNL     1      51.332  18.374  20.448  0.00  0.00    -0.304 OA
ATOM     23  C   UNL     1      52.241  18.862  19.444  0.00  0.00    +0.440 C 
ATOM     24  O   UNL     1      51.675  20.123  19.047  0.00  0.00    -0.303 OA
ATOM     25  C   UNL     1      50.333  20.010  19.275  0.00  0.00    +0.060 A 
ATOM     26  C   UNL     1      49.281  20.747  18.810  0.00  0.00    +0.050 A 
ATOM     27  C   UNL     1      47.972  20.423  19.200  0.00  0.00    -0.000 A 
ENDROOT
BRANCH   6   7
ATOM      7  O   UNL     1      40.561  20.477  19.897  0.00  0.00    -0.483 OA
ATOM      8  H   UNL     1      39.711  20.129  20.200  0.00  0.00    +0.396 HD
ENDBRANCH   6   7
BRANCH   9  10
ATOM     10  O   UNL     1      40.192  18.355  21.602  0.00  0.00    -0.481 OA
ATOM     11  H   UNL     1      39.491  18.816  21.121  0.00  0.00    +0.391 HD
ENDBRANCH   9  10
TORSDOF 2
ENDMDL
MODEL 7
REMARK VINA RESULT:      -6.2      2.965      7.748
REMARK  Name = ZINC95485910
REMARK  2 active torsions:
REMARK  status: ('A' for Active; 'I' for Inactive)
REMARK    1  A    between atoms: C6_6  and  O5_25
REMARK    2  A    between atoms: C7_7  and  O4_24
REMARK                            x       y       z     vdW  Elec       q    Type
REMARK                         _______ _______ _______ _____ _____    ______ ____
ROOT
ATOM      1  C   UNL     1      46.903  18.150  17.471  0.00  0.00    +0.020 A 
ATOM      2  C   UNL     1      45.782  18.519  18.139  0.00  0.00    +0.077 A 
ATOM      3  C   UNL     1      45.346  17.805  19.269  0.00  0.00    -0.102 A 
ATOM      4  C   UNL     1      44.124  18.215  19.985  0.00  0.00    +0.018 A 
ATOM      5  C   UNL     1      43.368  19.306  19.568  0.00  0.00    +0.014 A 
ATOM      6  C   UNL     1      42.227  19.655  20.269  0.00  0.00    +0.126 A 
ATOM      9  C   UNL     1      41.832  18.920  21.390  0.00  0.00    +0.070 A 
ATOM     12  C   UNL     1      42.573  17.835  21.814  0.00  0.00    +0.097 A 
ATOM     13  C   UNL     1      43.725  17.471  21.116  0.00  0.00    -0.140 A 
ATOM     14  C   UNL     1      44.541  16.325  21.531  0.00  0.00    +0.560 A 
ATOM     15  N   UNL     1      45.647  15.994  20.840  0.00  0.00    -0.634 N 
ATOM     16  H   UNL     1      46.170  15.232  21.133  0.00  0.00    +0.416 HD
ATOM     17  O   UNL     1      44.216  15.670  22.505  0.00  0.00    -0.514 OA
ATOM     18  C   UNL     1      46.063  16.700  19.730  0.00  0.00    +0.204 A 
ATOM     19  C   UNL     1      47.232  16.307  19.040  0.00  0.00    -0.066 A 
ATOM     20  C   UNL     1      47.981  15.198  19.467  0.00  0.00    +0.039 A 
ATOM     21  C   UNL     1      49.107  14.836  18.785  0.00  0.00    +0.050 A 
ATOM     22  O   UNL     1      49.992  13.816  18.996  0.00  0.00    -0.304 OA
ATOM     23  C   UNL     1      50.715  13.674  17.760  0.00  0.00    +0.440 C 
ATOM     24  O   UNL     1      50.669  14.988  17.178  0.00  0.00    -0.303 OA
ATOM     25  C   UNL     1      49.526  15.562  17.659  0.00  0.00    +0.060 A 
ATOM     26  C   UNL     1      48.816  16.644  17.223  0.00  0.00    +0.050 A 
ATOM     27  C   UNL     1      47.653  17.039  17.904  0.00  0.00    -0.000 A 
ENDROOT
BRANCH   6   7
ATOM      7  O   UNL     1      41.487  20.720  19.865  0.00  0.00    -0.483 OA
ATOM      8  H   UNL     1      40.540  20.539  19.801  0.00  0.00    +0.396 HD
ENDBRANCH   6   7
BRANCH   9  10
ATOM     10  O   UNL     1      40.708  19.276  22.069  0.00  0.00    -0.481 OA
ATOM     11  H   UNL     1      40.828  19.329  23.027  0.00  0.00    +0.391 HD
ENDBRANCH   9  10
TORSDOF 2
ENDMDL
MODEL 8
REMARK VINA RESULT:      -6.2      1.479      2.378
REMARK  Name = ZINC95485910
REMARK  2 active torsions:
REMARK  status: ('A' for Active; 'I' for Inactive)
REMARK    1  A    between atoms: C6_6  and  O5_25
REMARK    2  A    between atoms: C7_7  and  O4_24
REMARK                            x       y       z     vdW  Elec       q    Type
REMARK                         _______ _______ _______ _____ _____    ______ ____
ROOT
ATOM      1  C   UNL     1      48.041  20.560  19.301  0.00  0.00    +0.020 A 
ATOM      2  C   UNL     1      48.866  19.545  18.940  0.00  0.00    +0.077 A 
ATOM      3  C   UNL     1      48.356  18.371  18.359  0.00  0.00    -0.102 A 
ATOM      4  C   UNL     1      49.263  17.275  17.973  0.00  0.00    +0.018 A 
ATOM      5  C   UNL     1      50.637  17.362  18.173  0.00  0.00    +0.014 A 
ATOM      6  C   UNL     1      51.451  16.309  17.797  0.00  0.00    +0.126 A 
ATOM      9  C   UNL     1      50.902  15.161  17.218  0.00  0.00    +0.070 A 
ATOM     12  C   UNL     1      49.541  15.061  17.015  0.00  0.00    +0.097 A 
ATOM     13  C   UNL     1      48.708  16.115  17.390  0.00  0.00    -0.140 A 
ATOM     14  C   UNL     1      47.255  16.051  17.193  0.00  0.00    +0.560 A 
ATOM     15  N   UNL     1      46.473  17.080  17.565  0.00  0.00    -0.634 N 
ATOM     16  H   UNL     1      45.517  17.014  17.426  0.00  0.00    +0.416 HD
ATOM     17  O   UNL     1      46.755  15.060  16.691  0.00  0.00    -0.514 OA
ATOM     18  C   UNL     1      46.985  18.226  18.138  0.00  0.00    +0.204 A 
ATOM     19  C   UNL     1      46.117  19.277  18.512  0.00  0.00    -0.066 A 
ATOM     20  C   UNL     1      44.731  19.171  18.313  0.00  0.00    +0.039 A 
ATOM     21  C   UNL     1      43.912  20.198  18.682  0.00  0.00    +0.050 A 
ATOM     22  O   UNL     1      42.555  20.337  18.594  0.00  0.00    -0.304 OA
ATOM     23  C   UNL     1      42.219  21.409  19.494  0.00  0.00    +0.440 C 
ATOM     24  O   UNL     1      43.409  22.218  19.529  0.00  0.00    -0.303 OA
ATOM     25  C   UNL     1      44.440  21.363  19.261  0.00  0.00    +0.060 A 
ATOM     26  C   UNL     1      45.784  21.491  19.466  0.00  0.00    +0.050 A 
ATOM     27  C   UNL     1      46.651  20.450  19.097  0.00  0.00    -0.000 A 
ENDROOT
BRANCH   6   7
ATOM      7  O   UNL     1      52.793  16.392  17.990  0.00  0.00    -0.483 OA
ATOM      8  H   UNL     1      53.083  17.226  18.384  0.00  0.00    +0.396 HD
ENDBRANCH   6   7
BRANCH   9  10
ATOM     10  O   UNL     1      51.716  14.134  16.853  0.00  0.00    -0.481 OA
ATOM     11  H   UNL     1      51.457  13.701  16.028  0.00  0.00    +0.391 HD
ENDBRANCH   9  10
TORSDOF 2
ENDMDL
MODEL 9
REMARK VINA RESULT:      -6.1      2.010      3.550
REMARK  Name = ZINC95485910
REMARK  2 active torsions:
REMARK  status: ('A' for Active; 'I' for Inactive)
REMARK    1  A    between atoms: C6_6  and  O5_25
REMARK    2  A    between atoms: C7_7  and  O4_24
REMARK                            x       y       z     vdW  Elec       q    Type
REMARK                         _______ _______ _______ _____ _____    ______ ____
ROOT
ATOM      1  C   UNL     1      46.022  18.091  18.024  0.00  0.00    +0.020 A 
ATOM      2  C   UNL     1      47.323  17.706  18.030  0.00  0.00    +0.077 A 
ATOM      3  C   UNL     1      48.317  18.526  18.592  0.00  0.00    -0.102 A 
ATOM      4  C   UNL     1      49.727  18.096  18.590  0.00  0.00    +0.018 A 
ATOM      5  C   UNL     1      50.117  16.881  18.036  0.00  0.00    +0.014 A 
ATOM      6  C   UNL     1      51.452  16.519  18.055  0.00  0.00    +0.126 A 
ATOM      9  C   UNL     1      52.408  17.363  18.627  0.00  0.00    +0.070 A 
ATOM     12  C   UNL     1      52.034  18.571  19.180  0.00  0.00    +0.097 A 
ATOM     13  C   UNL     1      50.691  18.950  19.167  0.00  0.00    -0.140 A 
ATOM     14  C   UNL     1      50.251  20.226  19.742  0.00  0.00    +0.560 A 
ATOM     15  N   UNL     1      48.950  20.569  19.715  0.00  0.00    -0.634 N 
ATOM     16  H   UNL     1      48.683  21.417  20.101  0.00  0.00    +0.416 HD
ATOM     17  O   UNL     1      51.066  20.978  20.247  0.00  0.00    -0.514 OA
ATOM     18  C   UNL     1      47.984  19.757  19.159  0.00  0.00    +0.204 A 
ATOM     19  C   UNL     1      46.632  20.169  19.156  0.00  0.00    -0.066 A 
ATOM     20  C   UNL     1      46.253  21.401  19.711  0.00  0.00    +0.039 A 
ATOM     21  C   UNL     1      44.942  21.778  19.697  0.00  0.00    +0.050 A 
ATOM     22  O   UNL     1      44.330  22.907  20.165  0.00  0.00    -0.304 OA
ATOM     23  C   UNL     1      43.045  22.944  19.518  0.00  0.00    +0.440 C 
ATOM     24  O   UNL     1      42.750  21.561  19.253  0.00  0.00    -0.303 OA
ATOM     25  C   UNL     1      43.963  20.945  19.132  0.00  0.00    +0.060 A 
ATOM     26  C   UNL     1      44.305  19.741  18.585  0.00  0.00    +0.050 A 
ATOM     27  C   UNL     1      45.647  19.328  18.585  0.00  0.00    -0.000 A 
ENDROOT
BRANCH   6   7
ATOM      7  O   UNL     1      51.836  15.333  17.515  0.00  0.00    -0.483 OA
ATOM      8  H   UNL     1      52.794  15.226  17.440  0.00  0.00    +0.396 HD
ENDBRANCH   6   7
BRANCH   9  10
ATOM     10  O   UNL     1      53.716  16.992  18.638  0.00  0.00    -0.481 OA
ATOM     11  H   UNL     1      54.004  16.593  19.472  0.00  0.00    +0.391 HD
ENDBRANCH   9  10
TORSDOF 2
ENDMDL
