MODEL 1
REMARK VINA RESULT:      -6.4      0.000      0.000
REMARK  Name = ZINC04095704
REMARK  10 active torsions:
REMARK  status: ('A' for Active; 'I' for Inactive)
REMARK    1  A    between atoms: C3_3  and  O10_36
REMARK    2  A    between atoms: C6_6  and  C7_7
REMARK    3  A    between atoms: C13_15  and  O9_35
REMARK    4  A    between atoms: C14_16  and  C16_19
REMARK    5  A    between atoms: C15_17  and  O3_18
REMARK    6  A    between atoms: C17_21  and  O8_34
REMARK    7  A    between atoms: C18_23  and  O7_33
REMARK    8  A    between atoms: C19_25  and  O6_32
REMARK    9  A    between atoms: C20_27  and  C21_30
REMARK   10  A    between atoms: C21_30  and  O5_31
REMARK                            x       y       z     vdW  Elec       q    Type
REMARK                         _______ _______ _______ _____ _____    ______ ____
ROOT
ATOM      9  C   UNL     1      46.637  19.742  20.054  0.00  0.00    +0.208 A 
ATOM     10  C   UNL     1      47.184  18.948  21.013  0.00  0.00    -0.146 A 
ATOM     11  C   UNL     1      47.490  17.600  20.711  0.00  0.00    +0.424 A 
ATOM     12  C   UNL     1      47.196  17.126  19.348  0.00  0.00    -0.266 A 
ATOM     13  C   UNL     1      46.631  18.031  18.432  0.00  0.00    +0.188 A 
ATOM     14  C   UNL     1      46.345  17.607  17.144  0.00  0.00    -0.032 A 
ATOM     15  C   UNL     1      46.616  16.300  16.768  0.00  0.00    +0.217 A 
ATOM     18  C   UNL     1      47.175  15.403  17.672  0.00  0.00    -0.165 A 
ATOM     34  C   UNL     1      47.467  15.808  18.961  0.00  0.00    +0.247 A 
ATOM     37  O   UNL     1      47.980  16.858  21.548  0.00  0.00    -0.452 OA
ATOM     38  O   UNL     1      46.368  19.298  18.816  0.00  0.00    -0.218 OA
ENDROOT
BRANCH   9   8
ATOM      1  C   UNL     1      47.056  21.810  21.376  0.00  0.00    +0.080 A 
ATOM      2  C   UNL     1      46.759  23.120  21.684  0.00  0.00    -0.011 A 
ATOM      3  C   UNL     1      45.736  23.779  21.015  0.00  0.00    +0.135 A 
ATOM      6  C   UNL     1      45.005  23.121  20.032  0.00  0.00    -0.006 A 
ATOM      7  C   UNL     1      45.294  21.811  19.718  0.00  0.00    +0.080 A 
ATOM      8  C   UNL     1      46.324  21.144  20.388  0.00  0.00    -0.084 A 
BRANCH   3   4
ATOM      4  O   UNL     1      45.448  25.070  21.322  0.00  0.00    -0.497 OA
ATOM      5  H   UNL     1      45.896  25.395  22.115  0.00  0.00    +0.398 HD
ENDBRANCH   3   4
ENDBRANCH   9   8
BRANCH  18  19
ATOM     19  C   UNL     1      47.463  13.986  17.245  0.00  0.00    +0.244 C 
ATOM     20  C   UNL     1      46.144  13.262  16.959  0.00  0.00    +0.179 C 
ATOM     23  C   UNL     1      46.447  11.843  16.468  0.00  0.00    +0.117 C 
ATOM     26  C   UNL     1      47.348  11.923  15.231  0.00  0.00    +0.131 C 
ATOM     29  C   UNL     1      48.618  12.700  15.585  0.00  0.00    +0.181 C 
ATOM     33  O   UNL     1      48.265  13.998  16.063  0.00  0.00    -0.344 OA
BRANCH  20  21
ATOM     21  O   UNL     1      45.365  13.200  18.154  0.00  0.00    -0.555 OA
ATOM     22  H   UNL     1      45.318  14.038  18.637  0.00  0.00    +0.392 HD
ENDBRANCH  20  21
BRANCH  23  24
ATOM     24  O   UNL     1      45.226  11.183  16.130  0.00  0.00    -0.557 OA
ATOM     25  H   UNL     1      44.846  10.665  16.852  0.00  0.00    +0.383 HD
ENDBRANCH  23  24
BRANCH  26  27
ATOM     27  O   UNL     1      47.694  10.603  14.807  0.00  0.00    -0.553 OA
ATOM     28  H   UNL     1      47.507  10.428  13.875  0.00  0.00    +0.383 HD
ENDBRANCH  26  27
BRANCH  29  30
ATOM     30  C   UNL     1      49.496  12.835  14.340  0.00  0.00    +0.219 C 
BRANCH  30  31
ATOM     31  O   UNL     1      48.668  13.002  13.187  0.00  0.00    -0.566 OA
ATOM     32  H   UNL     1      48.543  13.922  12.922  0.00  0.00    +0.384 HD
ENDBRANCH  30  31
ENDBRANCH  29  30
ENDBRANCH  18  19
BRANCH  15  16
ATOM     16  O   UNL     1      46.333  15.892  15.505  0.00  0.00    -0.481 OA
ATOM     17  H   UNL     1      45.888  16.560  14.965  0.00  0.00    +0.406 HD
ENDBRANCH  15  16
BRANCH  34  35
ATOM     35  O   UNL     1      48.012  14.935  19.845  0.00  0.00    -0.470 OA
ATOM     36  H   UNL     1      48.817  15.258  20.273  0.00  0.00    +0.407 HD
ENDBRANCH  34  35
TORSDOF 10
ENDMDL
MODEL 2
REMARK VINA RESULT:      -6.3      2.621      3.901
REMARK  Name = ZINC04095704
REMARK  10 active torsions:
REMARK  status: ('A' for Active; 'I' for Inactive)
REMARK    1  A    between atoms: C3_3  and  O10_36
REMARK    2  A    between atoms: C6_6  and  C7_7
REMARK    3  A    between atoms: C13_15  and  O9_35
REMARK    4  A    between atoms: C14_16  and  C16_19
REMARK    5  A    between atoms: C15_17  and  O3_18
REMARK    6  A    between atoms: C17_21  and  O8_34
REMARK    7  A    between atoms: C18_23  and  O7_33
REMARK    8  A    between atoms: C19_25  and  O6_32
REMARK    9  A    between atoms: C20_27  and  C21_30
REMARK   10  A    between atoms: C21_30  and  O5_31
REMARK                            x       y       z     vdW  Elec       q    Type
REMARK                         _______ _______ _______ _____ _____    ______ ____
ROOT
ATOM      9  C   UNL     1      46.779  18.163  18.172  0.00  0.00    +0.208 A 
ATOM     10  C   UNL     1      48.117  18.376  18.286  0.00  0.00    -0.146 A 
ATOM     11  C   UNL     1      49.021  17.370  17.867  0.00  0.00    +0.424 A 
ATOM     12  C   UNL     1      48.449  16.129  17.320  0.00  0.00    -0.266 A 
ATOM     13  C   UNL     1      47.050  16.012  17.244  0.00  0.00    +0.188 A 
ATOM     14  C   UNL     1      46.490  14.852  16.733  0.00  0.00    -0.032 A 
ATOM     15  C   UNL     1      47.308  13.820  16.300  0.00  0.00    +0.217 A 
ATOM     18  C   UNL     1      48.692  13.933  16.373  0.00  0.00    -0.165 A 
ATOM     34  C   UNL     1      49.268  15.082  16.880  0.00  0.00    +0.247 A 
ATOM     37  O   UNL     1      50.229  17.526  17.957  0.00  0.00    -0.452 OA
ATOM     38  O   UNL     1      46.268  17.025  17.675  0.00  0.00    -0.218 OA
ENDROOT
BRANCH   9   8
ATOM      1  C   UNL     1      46.306  20.537  18.755  0.00  0.00    +0.080 A 
ATOM      2  C   UNL     1      45.436  21.522  19.168  0.00  0.00    -0.011 A 
ATOM      3  C   UNL     1      44.111  21.211  19.443  0.00  0.00    +0.135 A 
ATOM      6  C   UNL     1      43.655  19.906  19.304  0.00  0.00    -0.006 A 
ATOM      7  C   UNL     1      44.517  18.914  18.893  0.00  0.00    +0.080 A 
ATOM      8  C   UNL     1      45.852  19.222  18.614  0.00  0.00    -0.084 A 
BRANCH   3   4
ATOM      4  O   UNL     1      43.257  22.187  19.851  0.00  0.00    -0.497 OA
ATOM      5  H   UNL     1      42.416  21.855  20.193  0.00  0.00    +0.398 HD
ENDBRANCH   3   4
ENDBRANCH   9   8
BRANCH  18  19
ATOM     19  C   UNL     1      49.565  12.799  15.898  0.00  0.00    +0.244 C 
ATOM     20  C   UNL     1      50.031  13.081  14.467  0.00  0.00    +0.179 C 
ATOM     23  C   UNL     1      50.967  11.956  14.013  0.00  0.00    +0.117 C 
ATOM     26  C   UNL     1      52.137  11.851  14.997  0.00  0.00    +0.131 C 
ATOM     29  C   UNL     1      51.588  11.618  16.407  0.00  0.00    +0.181 C 
ATOM     33  O   UNL     1      50.703  12.683  16.755  0.00  0.00    -0.344 OA
BRANCH  20  21
ATOM     21  O   UNL     1      48.899  13.142  13.599  0.00  0.00    -0.555 OA
ATOM     22  H   UNL     1      49.080  13.557  12.744  0.00  0.00    +0.392 HD
ENDBRANCH  20  21
BRANCH  23  24
ATOM     24  O   UNL     1      51.464  12.245  12.706  0.00  0.00    -0.557 OA
ATOM     25  H   UNL     1      52.426  12.201  12.632  0.00  0.00    +0.383 HD
ENDBRANCH  23  24
BRANCH  26  27
ATOM     27  O   UNL     1      52.978  10.758  14.623  0.00  0.00    -0.553 OA
ATOM     28  H   UNL     1      53.743  11.015  14.091  0.00  0.00    +0.383 HD
ENDBRANCH  26  27
BRANCH  29  30
ATOM     30  C   UNL     1      52.748  11.571  17.404  0.00  0.00    +0.219 C 
BRANCH  30  31
ATOM     31  O   UNL     1      53.353  10.277  17.370  0.00  0.00    -0.566 OA
ATOM     32  H   UNL     1      53.693   9.979  18.224  0.00  0.00    +0.384 HD
ENDBRANCH  30  31
ENDBRANCH  29  30
ENDBRANCH  18  19
BRANCH  15  16
ATOM     16  O   UNL     1      46.752  12.687  15.800  0.00  0.00    -0.481 OA
ATOM     17  H   UNL     1      47.191  11.873  16.085  0.00  0.00    +0.406 HD
ENDBRANCH  15  16
BRANCH  34  35
ATOM     35  O   UNL     1      50.619  15.195  16.953  0.00  0.00    -0.470 OA
ATOM     36  H   UNL     1      50.925  15.864  17.581  0.00  0.00    +0.407 HD
ENDBRANCH  34  35
TORSDOF 10
ENDMDL
MODEL 3
REMARK VINA RESULT:      -6.2      1.918      9.337
REMARK  Name = ZINC04095704
REMARK  10 active torsions:
REMARK  status: ('A' for Active; 'I' for Inactive)
REMARK    1  A    between atoms: C3_3  and  O10_36
REMARK    2  A    between atoms: C6_6  and  C7_7
REMARK    3  A    between atoms: C13_15  and  O9_35
REMARK    4  A    between atoms: C14_16  and  C16_19
REMARK    5  A    between atoms: C15_17  and  O3_18
REMARK    6  A    between atoms: C17_21  and  O8_34
REMARK    7  A    between atoms: C18_23  and  O7_33
REMARK    8  A    between atoms: C19_25  and  O6_32
REMARK    9  A    between atoms: C20_27  and  C21_30
REMARK   10  A    between atoms: C21_30  and  O5_31
REMARK                            x       y       z     vdW  Elec       q    Type
REMARK                         _______ _______ _______ _____ _____    ______ ____
ROOT
ATOM      9  C   UNL     1      46.680  14.260  17.599  0.00  0.00    +0.208 A 
ATOM     10  C   UNL     1      46.006  13.878  18.716  0.00  0.00    -0.146 A 
ATOM     11  C   UNL     1      45.463  14.864  19.575  0.00  0.00    +0.424 A 
ATOM     12  C   UNL     1      45.663  16.273  19.201  0.00  0.00    -0.266 A 
ATOM     13  C   UNL     1      46.375  16.560  18.023  0.00  0.00    +0.188 A 
ATOM     14  C   UNL     1      46.575  17.880  17.652  0.00  0.00    -0.032 A 
ATOM     15  C   UNL     1      46.075  18.906  18.440  0.00  0.00    +0.217 A 
ATOM     18  C   UNL     1      45.371  18.625  19.605  0.00  0.00    -0.165 A 
ATOM     34  C   UNL     1      45.161  17.315  19.991  0.00  0.00    +0.247 A 
ATOM     37  O   UNL     1      44.853  14.557  20.587  0.00  0.00    -0.452 OA
ATOM     38  O   UNL     1      46.860  15.550  17.271  0.00  0.00    -0.218 OA
ENDROOT
BRANCH   9   8
ATOM      1  C   UNL     1      48.367  13.491  15.937  0.00  0.00    +0.080 A 
ATOM      2  C   UNL     1      48.885  12.515  15.115  0.00  0.00    -0.011 A 
ATOM      3  C   UNL     1      48.289  11.262  15.061  0.00  0.00    +0.135 A 
ATOM      6  C   UNL     1      47.167  10.986  15.833  0.00  0.00    -0.006 A 
ATOM      7  C   UNL     1      46.642  11.956  16.657  0.00  0.00    +0.080 A 
ATOM      8  C   UNL     1      47.239  13.219  16.717  0.00  0.00    -0.084 A 
BRANCH   3   4
ATOM      4  O   UNL     1      48.804  10.302  14.248  0.00  0.00    -0.497 OA
ATOM      5  H   UNL     1      49.378   9.670  14.701  0.00  0.00    +0.398 HD
ENDBRANCH   3   4
ENDBRANCH   9   8
BRANCH  18  19
ATOM     19  C   UNL     1      44.834  19.753  20.449  0.00  0.00    +0.244 C 
ATOM     20  C   UNL     1      45.999  20.484  21.123  0.00  0.00    +0.179 C 
ATOM     23  C   UNL     1      45.450  21.665  21.930  0.00  0.00    +0.117 C 
ATOM     26  C   UNL     1      44.651  22.580  20.997  0.00  0.00    +0.131 C 
ATOM     29  C   UNL     1      43.540  21.768  20.328  0.00  0.00    +0.181 C 
ATOM     33  O   UNL     1      44.115  20.668  19.620  0.00  0.00    -0.344 OA
BRANCH  20  21
ATOM     21  O   UNL     1      46.685  19.585  21.996  0.00  0.00    -0.555 OA
ATOM     22  H   UNL     1      47.645  19.573  21.871  0.00  0.00    +0.392 HD
ENDBRANCH  20  21
BRANCH  23  24
ATOM     24  O   UNL     1      46.535  22.396  22.505  0.00  0.00    -0.557 OA
ATOM     25  H   UNL     1      46.526  22.418  23.471  0.00  0.00    +0.383 HD
ENDBRANCH  23  24
BRANCH  26  27
ATOM     27  O   UNL     1      44.075  23.648  21.753  0.00  0.00    -0.553 OA
ATOM     28  H   UNL     1      43.746  24.379  21.213  0.00  0.00    +0.383 HD
ENDBRANCH  26  27
BRANCH  29  30
ATOM     30  C   UNL     1      42.774  22.661  19.350  0.00  0.00    +0.219 C 
BRANCH  30  31
ATOM     31  O   UNL     1      43.521  23.854  19.108  0.00  0.00    -0.566 OA
ATOM     32  H   UNL     1      44.251  23.994  19.725  0.00  0.00    +0.384 HD
ENDBRANCH  30  31
ENDBRANCH  29  30
ENDBRANCH  18  19
BRANCH  15  16
ATOM     16  O   UNL     1      46.276  20.196  18.070  0.00  0.00    -0.481 OA
ATOM     17  H   UNL     1      47.205  20.427  17.932  0.00  0.00    +0.406 HD
ENDBRANCH  15  16
BRANCH  34  35
ATOM     35  O   UNL     1      44.473  17.039  21.128  0.00  0.00    -0.470 OA
ATOM     36  H   UNL     1      45.036  16.837  21.889  0.00  0.00    +0.407 HD
ENDBRANCH  34  35
TORSDOF 10
ENDMDL
MODEL 4
REMARK VINA RESULT:      -5.9      3.894      8.635
REMARK  Name = ZINC04095704
REMARK  10 active torsions:
REMARK  status: ('A' for Active; 'I' for Inactive)
REMARK    1  A    between atoms: C3_3  and  O10_36
REMARK    2  A    between atoms: C6_6  and  C7_7
REMARK    3  A    between atoms: C13_15  and  O9_35
REMARK    4  A    between atoms: C14_16  and  C16_19
REMARK    5  A    between atoms: C15_17  and  O3_18
REMARK    6  A    between atoms: C17_21  and  O8_34
REMARK    7  A    between atoms: C18_23  and  O7_33
REMARK    8  A    between atoms: C19_25  and  O6_32
REMARK    9  A    between atoms: C20_27  and  C21_30
REMARK   10  A    between atoms: C21_30  and  O5_31
REMARK                            x       y       z     vdW  Elec       q    Type
REMARK                         _______ _______ _______ _____ _____    ______ ____
ROOT
ATOM      9  C   UNL     1      49.435  18.053  18.959  0.00  0.00    +0.208 A 
ATOM     10  C   UNL     1      48.634  17.648  17.937  0.00  0.00    -0.146 A 
ATOM     11  C   UNL     1      47.297  18.112  17.873  0.00  0.00    +0.424 A 
ATOM     12  C   UNL     1      46.844  19.023  18.936  0.00  0.00    -0.266 A 
ATOM     13  C   UNL     1      47.755  19.380  19.947  0.00  0.00    +0.188 A 
ATOM     14  C   UNL     1      47.350  20.237  20.958  0.00  0.00    -0.032 A 
ATOM     15  C   UNL     1      46.056  20.735  20.968  0.00  0.00    +0.217 A 
ATOM     18  C   UNL     1      45.153  20.384  19.970  0.00  0.00    -0.165 A 
ATOM     34  C   UNL     1      45.540  19.531  18.953  0.00  0.00    +0.247 A 
ATOM     37  O   UNL     1      46.550  17.768  16.971  0.00  0.00    -0.452 OA
ATOM     38  O   UNL     1      49.009  18.881  19.926  0.00  0.00    -0.218 OA
ENDROOT
BRANCH   9   8
ATOM      1  C   UNL     1      51.082  16.186  18.969  0.00  0.00    +0.080 A 
ATOM      2  C   UNL     1      52.381  15.730  19.015  0.00  0.00    -0.011 A 
ATOM      3  C   UNL     1      53.434  16.632  19.100  0.00  0.00    +0.135 A 
ATOM      6  C   UNL     1      53.182  17.999  19.140  0.00  0.00    -0.006 A 
ATOM      7  C   UNL     1      51.887  18.463  19.095  0.00  0.00    +0.080 A 
ATOM      8  C   UNL     1      50.824  17.559  19.008  0.00  0.00    -0.084 A 
BRANCH   3   4
ATOM      4  O   UNL     1      54.713  16.178  19.145  0.00  0.00    -0.497 OA
ATOM      5  H   UNL     1      54.792  15.251  19.411  0.00  0.00    +0.398 HD
ENDBRANCH   3   4
ENDBRANCH   9   8
BRANCH  18  19
ATOM     19  C   UNL     1      43.750  20.936  19.997  0.00  0.00    +0.244 C 
ATOM     20  C   UNL     1      43.688  22.212  19.152  0.00  0.00    +0.179 C 
ATOM     23  C   UNL     1      42.248  22.733  19.135  0.00  0.00    +0.117 C 
ATOM     26  C   UNL     1      41.325  21.633  18.598  0.00  0.00    +0.131 C 
ATOM     29  C   UNL     1      41.480  20.381  19.464  0.00  0.00    +0.181 C 
ATOM     33  O   UNL     1      42.847  19.967  19.461  0.00  0.00    -0.344 OA
BRANCH  20  21
ATOM     21  O   UNL     1      44.549  23.201  19.719  0.00  0.00    -0.555 OA
ATOM     22  H   UNL     1      45.431  23.228  19.322  0.00  0.00    +0.392 HD
ENDBRANCH  20  21
BRANCH  23  24
ATOM     24  O   UNL     1      42.165  23.883  18.292  0.00  0.00    -0.557 OA
ATOM     25  H   UNL     1      41.558  23.782  17.548  0.00  0.00    +0.383 HD
ENDBRANCH  23  24
BRANCH  26  27
ATOM     27  O   UNL     1      39.970  22.083  18.644  0.00  0.00    -0.553 OA
ATOM     28  H   UNL     1      39.411  21.720  17.944  0.00  0.00    +0.383 HD
ENDBRANCH  26  27
BRANCH  29  30
ATOM     30  C   UNL     1      40.606  19.259  18.898  0.00  0.00    +0.219 C 
BRANCH  30  31
ATOM     31  O   UNL     1      40.360  19.499  17.511  0.00  0.00    -0.566 OA
ATOM     32  H   UNL     1      39.473  19.251  17.220  0.00  0.00    +0.384 HD
ENDBRANCH  30  31
ENDBRANCH  29  30
ENDBRANCH  18  19
BRANCH  15  16
ATOM     16  O   UNL     1      45.666  21.573  21.962  0.00  0.00    -0.481 OA
ATOM     17  H   UNL     1      44.765  21.910  21.863  0.00  0.00    +0.406 HD
ENDBRANCH  15  16
BRANCH  34  35
ATOM     35  O   UNL     1      44.660  19.187  17.978  0.00  0.00    -0.470 OA
ATOM     36  H   UNL     1      43.789  18.927  18.308  0.00  0.00    +0.407 HD
ENDBRANCH  34  35
TORSDOF 10
ENDMDL
MODEL 5
REMARK VINA RESULT:      -5.9      1.863      2.515
REMARK  Name = ZINC04095704
REMARK  10 active torsions:
REMARK  status: ('A' for Active; 'I' for Inactive)
REMARK    1  A    between atoms: C3_3  and  O10_36
REMARK    2  A    between atoms: C6_6  and  C7_7
REMARK    3  A    between atoms: C13_15  and  O9_35
REMARK    4  A    between atoms: C14_16  and  C16_19
REMARK    5  A    between atoms: C15_17  and  O3_18
REMARK    6  A    between atoms: C17_21  and  O8_34
REMARK    7  A    between atoms: C18_23  and  O7_33
REMARK    8  A    between atoms: C19_25  and  O6_32
REMARK    9  A    between atoms: C20_27  and  C21_30
REMARK   10  A    between atoms: C21_30  and  O5_31
REMARK                            x       y       z     vdW  Elec       q    Type
REMARK                         _______ _______ _______ _____ _____    ______ ____
ROOT
ATOM      9  C   UNL     1      47.102  19.628  19.343  0.00  0.00    +0.208 A 
ATOM     10  C   UNL     1      48.375  19.596  18.864  0.00  0.00    -0.146 A 
ATOM     11  C   UNL     1      48.894  18.386  18.344  0.00  0.00    +0.424 A 
ATOM     12  C   UNL     1      48.009  17.210  18.351  0.00  0.00    -0.266 A 
ATOM     13  C   UNL     1      46.709  17.352  18.868  0.00  0.00    +0.188 A 
ATOM     14  C   UNL     1      45.859  16.257  18.886  0.00  0.00    -0.032 A 
ATOM     15  C   UNL     1      46.292  15.035  18.394  0.00  0.00    +0.217 A 
ATOM     18  C   UNL     1      47.576  14.892  17.881  0.00  0.00    -0.165 A 
ATOM     34  C   UNL     1      48.438  15.972  17.856  0.00  0.00    +0.247 A 
ATOM     37  O   UNL     1      50.032  18.320  17.906  0.00  0.00    -0.452 OA
ATOM     38  O   UNL     1      46.306  18.547  19.348  0.00  0.00    -0.218 OA
ENDROOT
BRANCH   9   8
ATOM      1  C   UNL     1      47.169  21.477  21.008  0.00  0.00    +0.080 A 
ATOM      2  C   UNL     1      46.677  22.663  21.507  0.00  0.00    -0.011 A 
ATOM      3  C   UNL     1      45.598  23.284  20.891  0.00  0.00    +0.135 A 
ATOM      6  C   UNL     1      45.008  22.712  19.769  0.00  0.00    -0.006 A 
ATOM      7  C   UNL     1      45.493  21.525  19.265  0.00  0.00    +0.080 A 
ATOM      8  C   UNL     1      46.579  20.898  19.881  0.00  0.00    -0.084 A 
BRANCH   3   4
ATOM      4  O   UNL     1      45.116  24.453  21.386  0.00  0.00    -0.497 OA
ATOM      5  H   UNL     1      45.790  25.017  21.789  0.00  0.00    +0.398 HD
ENDBRANCH   3   4
ENDBRANCH   9   8
BRANCH  18  19
ATOM     19  C   UNL     1      48.029  13.555  17.351  0.00  0.00    +0.244 C 
ATOM     20  C   UNL     1      48.174  13.633  15.829  0.00  0.00    +0.179 C 
ATOM     23  C   UNL     1      48.693  12.291  15.304  0.00  0.00    +0.117 C 
ATOM     26  C   UNL     1      50.018  11.961  15.999  0.00  0.00    +0.131 C 
ATOM     29  C   UNL     1      49.801  11.948  17.514  0.00  0.00    +0.181 C 
ATOM     33  O   UNL     1      49.290  13.215  17.932  0.00  0.00    -0.344 OA
BRANCH  20  21
ATOM     21  O   UNL     1      46.903  13.918  15.243  0.00  0.00    -0.555 OA
ATOM     22  H   UNL     1      46.331  14.470  15.795  0.00  0.00    +0.392 HD
ENDBRANCH  20  21
BRANCH  23  24
ATOM     24  O   UNL     1      48.899  12.376  13.893  0.00  0.00    -0.557 OA
ATOM     25  H   UNL     1      48.084  12.446  13.380  0.00  0.00    +0.383 HD
ENDBRANCH  23  24
BRANCH  26  27
ATOM     27  O   UNL     1      50.475  10.676  15.570  0.00  0.00    -0.553 OA
ATOM     28  H   UNL     1      51.271  10.370  16.024  0.00  0.00    +0.383 HD
ENDBRANCH  26  27
BRANCH  29  30
ATOM     30  C   UNL     1      51.132  11.677  18.218  0.00  0.00    +0.219 C 
BRANCH  30  31
ATOM     31  O   UNL     1      52.208  12.137  17.397  0.00  0.00    -0.566 OA
ATOM     32  H   UNL     1      52.177  13.083  17.203  0.00  0.00    +0.384 HD
ENDBRANCH  30  31
ENDBRANCH  29  30
ENDBRANCH  18  19
BRANCH  15  16
ATOM     16  O   UNL     1      45.453  13.968  18.414  0.00  0.00    -0.481 OA
ATOM     17  H   UNL     1      45.785  13.197  17.935  0.00  0.00    +0.406 HD
ENDBRANCH  15  16
BRANCH  34  35
ATOM     35  O   UNL     1      49.692  15.835  17.356  0.00  0.00    -0.470 OA
ATOM     36  H   UNL     1      50.369  15.675  18.028  0.00  0.00    +0.407 HD
ENDBRANCH  34  35
TORSDOF 10
ENDMDL
MODEL 6
REMARK VINA RESULT:      -5.8      2.822      9.044
REMARK  Name = ZINC04095704
REMARK  10 active torsions:
REMARK  status: ('A' for Active; 'I' for Inactive)
REMARK    1  A    between atoms: C3_3  and  O10_36
REMARK    2  A    between atoms: C6_6  and  C7_7
REMARK    3  A    between atoms: C13_15  and  O9_35
REMARK    4  A    between atoms: C14_16  and  C16_19
REMARK    5  A    between atoms: C15_17  and  O3_18
REMARK    6  A    between atoms: C17_21  and  O8_34
REMARK    7  A    between atoms: C18_23  and  O7_33
REMARK    8  A    between atoms: C19_25  and  O6_32
REMARK    9  A    between atoms: C20_27  and  C21_30
REMARK   10  A    between atoms: C21_30  and  O5_31
REMARK                            x       y       z     vdW  Elec       q    Type
REMARK                         _______ _______ _______ _____ _____    ______ ____
ROOT
ATOM      9  C   UNL     1      48.931  13.574  16.586  0.00  0.00    +0.208 A 
ATOM     10  C   UNL     1      47.733  13.040  16.946  0.00  0.00    -0.146 A 
ATOM     11  C   UNL     1      46.794  13.839  17.642  0.00  0.00    +0.424 A 
ATOM     12  C   UNL     1      47.175  15.229  17.939  0.00  0.00    -0.266 A 
ATOM     13  C   UNL     1      48.438  15.682  17.520  0.00  0.00    +0.188 A 
ATOM     14  C   UNL     1      48.818  16.988  17.790  0.00  0.00    -0.032 A 
ATOM     15  C   UNL     1      47.954  17.835  18.468  0.00  0.00    +0.217 A 
ATOM     18  C   UNL     1      46.705  17.390  18.883  0.00  0.00    -0.165 A 
ATOM     34  C   UNL     1      46.308  16.091  18.623  0.00  0.00    +0.247 A 
ATOM     37  O   UNL     1      45.710  13.392  17.982  0.00  0.00    -0.452 OA
ATOM     38  O   UNL     1      49.269  14.843  16.867  0.00  0.00    -0.218 OA
ENDROOT
BRANCH   9   8
ATOM      1  C   UNL     1      49.644  11.361  15.695  0.00  0.00    +0.080 A 
ATOM      2  C   UNL     1      50.549  10.574  15.018  0.00  0.00    -0.011 A 
ATOM      3  C   UNL     1      51.710  11.134  14.501  0.00  0.00    +0.135 A 
ATOM      6  C   UNL     1      51.966  12.490  14.665  0.00  0.00    -0.006 A 
ATOM      7  C   UNL     1      51.067  13.285  15.341  0.00  0.00    +0.080 A 
ATOM      8  C   UNL     1      49.897  12.726  15.862  0.00  0.00    -0.084 A 
BRANCH   3   4
ATOM      4  O   UNL     1      52.600  10.353  13.835  0.00  0.00    -0.497 OA
ATOM      5  H   UNL     1      52.264  10.000  12.999  0.00  0.00    +0.398 HD
ENDBRANCH   3   4
ENDBRANCH   9   8
BRANCH  18  19
ATOM     19  C   UNL     1      45.779  18.325  19.619  0.00  0.00    +0.244 C 
ATOM     20  C   UNL     1      44.759  18.909  18.637  0.00  0.00    +0.179 C 
ATOM     23  C   UNL     1      43.785  19.811  19.402  0.00  0.00    +0.117 C 
ATOM     26  C   UNL     1      43.120  18.996  20.516  0.00  0.00    +0.131 C 
ATOM     29  C   UNL     1      44.204  18.409  21.424  0.00  0.00    +0.181 C 
ATOM     33  O   UNL     1      45.093  17.607  20.646  0.00  0.00    -0.344 OA
BRANCH  20  21
ATOM     21  O   UNL     1      45.439  19.674  17.641  0.00  0.00    -0.555 OA
ATOM     22  H   UNL     1      45.323  20.631  17.733  0.00  0.00    +0.392 HD
ENDBRANCH  20  21
BRANCH  23  24
ATOM     24  O   UNL     1      42.787  20.304  18.507  0.00  0.00    -0.557 OA
ATOM     25  H   UNL     1      41.888  20.262  18.859  0.00  0.00    +0.383 HD
ENDBRANCH  23  24
BRANCH  26  27
ATOM     27  O   UNL     1      42.263  19.846  21.282  0.00  0.00    -0.553 OA
ATOM     28  H   UNL     1      42.478  19.876  22.224  0.00  0.00    +0.383 HD
ENDBRANCH  26  27
BRANCH  29  30
ATOM     30  C   UNL     1      43.551  17.546  22.505  0.00  0.00    +0.219 C 
BRANCH  30  31
ATOM     31  O   UNL     1      42.219  17.212  22.109  0.00  0.00    -0.566 OA
ATOM     32  H   UNL     1      41.932  16.335  22.395  0.00  0.00    +0.384 HD
ENDBRANCH  30  31
ENDBRANCH  29  30
ENDBRANCH  18  19
BRANCH  15  16
ATOM     16  O   UNL     1      48.333  19.112  18.729  0.00  0.00    -0.481 OA
ATOM     17  H   UNL     1      49.137  19.184  19.262  0.00  0.00    +0.406 HD
ENDBRANCH  15  16
BRANCH  34  35
ATOM     35  O   UNL     1      45.089  15.654  19.027  0.00  0.00    -0.470 OA
ATOM     36  H   UNL     1      44.498  16.358  19.328  0.00  0.00    +0.407 HD
ENDBRANCH  34  35
TORSDOF 10
ENDMDL
MODEL 7
REMARK VINA RESULT:      -5.8      2.343      9.190
REMARK  Name = ZINC04095704
REMARK  10 active torsions:
REMARK  status: ('A' for Active; 'I' for Inactive)
REMARK    1  A    between atoms: C3_3  and  O10_36
REMARK    2  A    between atoms: C6_6  and  C7_7
REMARK    3  A    between atoms: C13_15  and  O9_35
REMARK    4  A    between atoms: C14_16  and  C16_19
REMARK    5  A    between atoms: C15_17  and  O3_18
REMARK    6  A    between atoms: C17_21  and  O8_34
REMARK    7  A    between atoms: C18_23  and  O7_33
REMARK    8  A    between atoms: C19_25  and  O6_32
REMARK    9  A    between atoms: C20_27  and  C21_30
REMARK   10  A    between atoms: C21_30  and  O5_31
REMARK                            x       y       z     vdW  Elec       q    Type
REMARK                         _______ _______ _______ _____ _____    ______ ____
ROOT
ATOM      9  C   UNL     1      48.474  13.041  16.161  0.00  0.00    +0.208 A 
ATOM     10  C   UNL     1      47.574  12.321  16.882  0.00  0.00    -0.146 A 
ATOM     11  C   UNL     1      46.691  12.991  17.764  0.00  0.00    +0.424 A 
ATOM     12  C   UNL     1      46.801  14.456  17.850  0.00  0.00    -0.266 A 
ATOM     13  C   UNL     1      47.767  15.104  17.059  0.00  0.00    +0.188 A 
ATOM     14  C   UNL     1      47.888  16.483  17.124  0.00  0.00    -0.032 A 
ATOM     15  C   UNL     1      47.060  17.213  17.964  0.00  0.00    +0.217 A 
ATOM     18  C   UNL     1      46.105  16.575  18.747  0.00  0.00    -0.165 A 
ATOM     34  C   UNL     1      45.969  15.200  18.695  0.00  0.00    +0.247 A 
ATOM     37  O   UNL     1      45.871  12.376  18.427  0.00  0.00    -0.452 OA
ATOM     38  O   UNL     1      48.568  14.378  16.251  0.00  0.00    -0.218 OA
ENDROOT
BRANCH   9   8
ATOM      1  C   UNL     1      49.783  12.921  14.046  0.00  0.00    +0.080 A 
ATOM      2  C   UNL     1      50.635  12.249  13.197  0.00  0.00    -0.011 A 
ATOM      3  C   UNL     1      51.099  10.984  13.533  0.00  0.00    +0.135 A 
ATOM      6  C   UNL     1      50.707  10.389  14.727  0.00  0.00    -0.006 A 
ATOM      7  C   UNL     1      49.855  11.053  15.581  0.00  0.00    +0.080 A 
ATOM      8  C   UNL     1      49.386  12.326  15.248  0.00  0.00    -0.084 A 
BRANCH   3   4
ATOM      4  O   UNL     1      51.939  10.325  12.693  0.00  0.00    -0.497 OA
ATOM      5  H   UNL     1      52.869  10.371  12.951  0.00  0.00    +0.398 HD
ENDBRANCH   3   4
ENDBRANCH   9   8
BRANCH  18  19
ATOM     19  C   UNL     1      45.213  17.385  19.654  0.00  0.00    +0.244 C 
ATOM     20  C   UNL     1      46.070  18.109  20.696  0.00  0.00    +0.179 C 
ATOM     23  C   UNL     1      45.164  18.977  21.576  0.00  0.00    +0.117 C 
ATOM     26  C   UNL     1      44.386  19.949  20.684  0.00  0.00    +0.131 C 
ATOM     29  C   UNL     1      43.595  19.153  19.643  0.00  0.00    +0.181 C 
ATOM     33  O   UNL     1      44.493  18.346  18.880  0.00  0.00    -0.344 OA
BRANCH  20  21
ATOM     21  O   UNL     1      46.748  17.149  21.507  0.00  0.00    -0.555 OA
ATOM     22  H   UNL     1      46.561  17.231  22.453  0.00  0.00    +0.392 HD
ENDBRANCH  20  21
BRANCH  23  24
ATOM     24  O   UNL     1      45.962  19.712  22.505  0.00  0.00    -0.557 OA
ATOM     25  H   UNL     1      45.896  20.670  22.409  0.00  0.00    +0.383 HD
ENDBRANCH  23  24
BRANCH  26  27
ATOM     27  O   UNL     1      43.485  20.716  21.487  0.00  0.00    -0.553 OA
ATOM     28  H   UNL     1      42.770  20.197  21.880  0.00  0.00    +0.383 HD
ENDBRANCH  26  27
BRANCH  29  30
ATOM     30  C   UNL     1      42.861  20.121  18.712  0.00  0.00    +0.219 C 
BRANCH  30  31
ATOM     31  O   UNL     1      43.480  21.407  18.775  0.00  0.00    -0.566 OA
ATOM     32  H   UNL     1      43.418  21.832  19.641  0.00  0.00    +0.384 HD
ENDBRANCH  30  31
ENDBRANCH  29  30
ENDBRANCH  18  19
BRANCH  15  16
ATOM     16  O   UNL     1      47.185  18.563  18.023  0.00  0.00    -0.481 OA
ATOM     17  H   UNL     1      47.578  18.887  18.845  0.00  0.00    +0.406 HD
ENDBRANCH  15  16
BRANCH  34  35
ATOM     35  O   UNL     1      45.037  14.576  19.458  0.00  0.00    -0.470 OA
ATOM     36  H   UNL     1      44.604  13.831  19.019  0.00  0.00    +0.407 HD
ENDBRANCH  34  35
TORSDOF 10
ENDMDL
MODEL 8
REMARK VINA RESULT:      -5.5      2.832      9.112
REMARK  Name = ZINC04095704
REMARK  10 active torsions:
REMARK  status: ('A' for Active; 'I' for Inactive)
REMARK    1  A    between atoms: C3_3  and  O10_36
REMARK    2  A    between atoms: C6_6  and  C7_7
REMARK    3  A    between atoms: C13_15  and  O9_35
REMARK    4  A    between atoms: C14_16  and  C16_19
REMARK    5  A    between atoms: C15_17  and  O3_18
REMARK    6  A    between atoms: C17_21  and  O8_34
REMARK    7  A    between atoms: C18_23  and  O7_33
REMARK    8  A    between atoms: C19_25  and  O6_32
REMARK    9  A    between atoms: C20_27  and  C21_30
REMARK   10  A    between atoms: C21_30  and  O5_31
REMARK                            x       y       z     vdW  Elec       q    Type
REMARK                         _______ _______ _______ _____ _____    ______ ____
ROOT
ATOM      9  C   UNL     1      49.242  14.906  17.928  0.00  0.00    +0.208 A 
ATOM     10  C   UNL     1      48.343  15.146  16.936  0.00  0.00    -0.146 A 
ATOM     11  C   UNL     1      47.342  16.128  17.125  0.00  0.00    +0.424 A 
ATOM     12  C   UNL     1      47.332  16.849  18.408  0.00  0.00    -0.266 A 
ATOM     13  C   UNL     1      48.308  16.524  19.367  0.00  0.00    +0.188 A 
ATOM     14  C   UNL     1      48.317  17.189  20.583  0.00  0.00    -0.032 A 
ATOM     15  C   UNL     1      47.369  18.167  20.845  0.00  0.00    +0.217 A 
ATOM     18  C   UNL     1      46.403  18.490  19.899  0.00  0.00    -0.165 A 
ATOM     34  C   UNL     1      46.378  17.837  18.681  0.00  0.00    +0.247 A 
ATOM     37  O   UNL     1      46.518  16.369  16.256  0.00  0.00    -0.452 OA
ATOM     38  O   UNL     1      49.220  15.566  19.097  0.00  0.00    -0.218 OA
ENDROOT
BRANCH   9   8
ATOM      1  C   UNL     1      50.527  13.391  16.427  0.00  0.00    +0.080 A 
ATOM      2  C   UNL     1      51.495  12.432  16.232  0.00  0.00    -0.011 A 
ATOM      3  C   UNL     1      52.225  11.948  17.310  0.00  0.00    +0.135 A 
ATOM      6  C   UNL     1      51.981  12.429  18.591  0.00  0.00    -0.006 A 
ATOM      7  C   UNL     1      51.014  13.388  18.796  0.00  0.00    +0.080 A 
ATOM      8  C   UNL     1      50.278  13.878  17.713  0.00  0.00    -0.084 A 
BRANCH   3   4
ATOM      4  O   UNL     1      53.179  11.002  17.112  0.00  0.00    -0.497 OA
ATOM      5  H   UNL     1      52.843  10.095  17.132  0.00  0.00    +0.398 HD
ENDBRANCH   3   4
ENDBRANCH   9   8
BRANCH  18  19
ATOM     19  C   UNL     1      45.380  19.555  20.203  0.00  0.00    +0.244 C 
ATOM     20  C   UNL     1      45.656  20.788  19.337  0.00  0.00    +0.179 C 
ATOM     23  C   UNL     1      44.578  21.842  19.607  0.00  0.00    +0.117 C 
ATOM     26  C   UNL     1      43.201  21.231  19.328  0.00  0.00    +0.131 C 
ATOM     29  C   UNL     1      43.021  19.982  20.193  0.00  0.00    +0.181 C 
ATOM     33  O   UNL     1      44.072  19.055  19.916  0.00  0.00    -0.344 OA
BRANCH  20  21
ATOM     21  O   UNL     1      46.940  21.321  19.663  0.00  0.00    -0.555 OA
ATOM     22  H   UNL     1      47.121  21.358  20.613  0.00  0.00    +0.392 HD
ENDBRANCH  20  21
BRANCH  23  24
ATOM     24  O   UNL     1      44.786  22.968  18.753  0.00  0.00    -0.557 OA
ATOM     25  H   UNL     1      44.110  23.074  18.071  0.00  0.00    +0.383 HD
ENDBRANCH  23  24
BRANCH  26  27
ATOM     27  O   UNL     1      42.183  22.184  19.644  0.00  0.00    -0.553 OA
ATOM     28  H   UNL     1      42.508  22.964  20.114  0.00  0.00    +0.383 HD
ENDBRANCH  26  27
BRANCH  29  30
ATOM     30  C   UNL     1      41.672  19.333  19.877  0.00  0.00    +0.219 C 
BRANCH  30  31
ATOM     31  O   UNL     1      40.646  19.970  20.641  0.00  0.00    -0.566 OA
ATOM     32  H   UNL     1      39.819  20.100  20.158  0.00  0.00    +0.384 HD
ENDBRANCH  30  31
ENDBRANCH  29  30
ENDBRANCH  18  19
BRANCH  15  16
ATOM     16  O   UNL     1      47.385  18.813  22.039  0.00  0.00    -0.481 OA
ATOM     17  H   UNL     1      47.904  18.368  22.722  0.00  0.00    +0.406 HD
ENDBRANCH  15  16
BRANCH  34  35
ATOM     35  O   UNL     1      45.436  18.151  17.756  0.00  0.00    -0.470 OA
ATOM     36  H   UNL     1      45.482  17.617  16.951  0.00  0.00    +0.407 HD
ENDBRANCH  34  35
TORSDOF 10
ENDMDL
MODEL 9
REMARK VINA RESULT:      -5.5      3.622      9.626
REMARK  Name = ZINC04095704
REMARK  10 active torsions:
REMARK  status: ('A' for Active; 'I' for Inactive)
REMARK    1  A    between atoms: C3_3  and  O10_36
REMARK    2  A    between atoms: C6_6  and  C7_7
REMARK    3  A    between atoms: C13_15  and  O9_35
REMARK    4  A    between atoms: C14_16  and  C16_19
REMARK    5  A    between atoms: C15_17  and  O3_18
REMARK    6  A    between atoms: C17_21  and  O8_34
REMARK    7  A    between atoms: C18_23  and  O7_33
REMARK    8  A    between atoms: C19_25  and  O6_32
REMARK    9  A    between atoms: C20_27  and  C21_30
REMARK   10  A    between atoms: C21_30  and  O5_31
REMARK                            x       y       z     vdW  Elec       q    Type
REMARK                         _______ _______ _______ _____ _____    ______ ____
ROOT
ATOM      9  C   UNL     1      50.540  12.673  13.465  0.00  0.00    +0.208 A 
ATOM     10  C   UNL     1      51.443  13.330  14.241  0.00  0.00    -0.146 A 
ATOM     11  C   UNL     1      51.033  13.869  15.484  0.00  0.00    +0.424 A 
ATOM     12  C   UNL     1      49.625  13.683  15.873  0.00  0.00    -0.266 A 
ATOM     13  C   UNL     1      48.775  12.986  14.996  0.00  0.00    +0.188 A 
ATOM     14  C   UNL     1      47.445  12.800  15.342  0.00  0.00    -0.032 A 
ATOM     15  C   UNL     1      46.964  13.297  16.543  0.00  0.00    +0.217 A 
ATOM     18  C   UNL     1      47.803  13.986  17.412  0.00  0.00    -0.165 A 
ATOM     34  C   UNL     1      49.132  14.182  17.085  0.00  0.00    +0.247 A 
ATOM     37  O   UNL     1      51.816  14.466  16.206  0.00  0.00    -0.452 OA
ATOM     38  O   UNL     1      49.258  12.514  13.828  0.00  0.00    -0.218 OA
ENDROOT
BRANCH   9   8
ATOM      1  C   UNL     1      51.410  10.789  12.090  0.00  0.00    +0.080 A 
ATOM      2  C   UNL     1      51.826  10.277  10.881  0.00  0.00    -0.011 A 
ATOM      3  C   UNL     1      51.823  11.077   9.746  0.00  0.00    +0.135 A 
ATOM      6  C   UNL     1      51.403  12.400   9.824  0.00  0.00    -0.006 A 
ATOM      7  C   UNL     1      50.987  12.921  11.029  0.00  0.00    +0.080 A 
ATOM      8  C   UNL     1      50.987  12.119  12.173  0.00  0.00    -0.084 A 
BRANCH   3   4
ATOM      4  O   UNL     1      52.234  10.567   8.556  0.00  0.00    -0.497 OA
ATOM      5  H   UNL     1      52.764  11.179   8.028  0.00  0.00    +0.398 HD
ENDBRANCH   3   4
ENDBRANCH   9   8
BRANCH  18  19
ATOM     19  C   UNL     1      47.263  14.520  18.714  0.00  0.00    +0.244 C 
ATOM     20  C   UNL     1      46.496  15.819  18.453  0.00  0.00    +0.179 C 
ATOM     23  C   UNL     1      45.899  16.323  19.771  0.00  0.00    +0.117 C 
ATOM     26  C   UNL     1      45.006  15.229  20.365  0.00  0.00    +0.131 C 
ATOM     29  C   UNL     1      45.831  13.954  20.551  0.00  0.00    +0.181 C 
ATOM     33  O   UNL     1      46.382  13.556  19.295  0.00  0.00    -0.344 OA
BRANCH  20  21
ATOM     21  O   UNL     1      47.388  16.802  17.924  0.00  0.00    -0.555 OA
ATOM     22  H   UNL     1      48.237  16.443  17.629  0.00  0.00    +0.392 HD
ENDBRANCH  20  21
BRANCH  23  24
ATOM     24  O   UNL     1      45.122  17.497  19.526  0.00  0.00    -0.557 OA
ATOM     25  H   UNL     1      45.332  17.941  18.695  0.00  0.00    +0.383 HD
ENDBRANCH  23  24
BRANCH  26  27
ATOM     27  O   UNL     1      44.500  15.662  21.630  0.00  0.00    -0.553 OA
ATOM     28  H   UNL     1      43.966  16.466  21.586  0.00  0.00    +0.383 HD
ENDBRANCH  26  27
BRANCH  29  30
ATOM     30  C   UNL     1      44.932  12.839  21.090  0.00  0.00    +0.219 C 
BRANCH  30  31
ATOM     31  O   UNL     1      44.792  12.981  22.505  0.00  0.00    -0.566 OA
ATOM     32  H   UNL     1      44.056  13.546  22.774  0.00  0.00    +0.384 HD
ENDBRANCH  30  31
ENDBRANCH  29  30
ENDBRANCH  18  19
BRANCH  15  16
ATOM     16  O   UNL     1      45.661  13.110  16.874  0.00  0.00    -0.481 OA
ATOM     17  H   UNL     1      45.193  12.490  16.298  0.00  0.00    +0.406 HD
ENDBRANCH  15  16
BRANCH  34  35
ATOM     35  O   UNL     1      49.953  14.854  17.931  0.00  0.00    -0.470 OA
ATOM     36  H   UNL     1      50.117  14.396  18.766  0.00  0.00    +0.407 HD
ENDBRANCH  34  35
TORSDOF 10
ENDMDL
