MODEL 1
REMARK VINA RESULT:      -4.7      0.000      0.000
REMARK  Name = ZINC95486061
REMARK  20 active torsions:
REMARK  status: ('A' for Active; 'I' for Inactive)
REMARK    1  A    between atoms: C1_1  and  C2_2
REMARK    2  A    between atoms: C2_2  and  C3_4
REMARK    3  A    between atoms: C3_4  and  C4_6
REMARK    4  A    between atoms: C3_4  and  C14_18
REMARK    5  A    between atoms: C4_6  and  C5_7
REMARK    6  A    between atoms: C5_7  and  C6_8
REMARK    7  A    between atoms: C6_8  and  C7_9
REMARK    8  A    between atoms: C7_9  and  C8_10
REMARK    9  A    between atoms: C8_10  and  C9_11
REMARK   10  A    between atoms: C9_11  and  C10_12
REMARK   11  A    between atoms: C10_12  and  C11_13
REMARK   12  A    between atoms: C11_13  and  O2_14
REMARK   13  A    between atoms: O2_14  and  C12_15
REMARK   14  A    between atoms: C12_15  and  C13_17
REMARK   15  A    between atoms: C15_19  and  C16_20
REMARK   16  A    between atoms: C17_21  and  C18_22
REMARK   17  A    between atoms: C18_22  and  C19_24
REMARK   18  A    between atoms: C18_22  and  O4_26
REMARK   19  A    between atoms: O4_26  and  C21_27
REMARK   20  A    between atoms: C21_27  and  C22_29
REMARK                            x       y       z     vdW  Elec       q    Type
REMARK                         _______ _______ _______ _____ _____    ______ ____
ROOT
ATOM      3  C   UNL     1      44.641  20.995  20.158  0.00  0.00    +0.105 C 
ENDROOT
BRANCH   3   2
ATOM      1  C   UNL     1      45.097  23.503  20.717  0.00  0.00    +0.073 C 
ATOM      2  C   UNL     1      44.220  22.440  20.107  0.00  0.00    +0.365 C 
ATOM     27  O   UNL     1      43.179  22.748  19.577  0.00  0.00    -0.437 OA
ENDBRANCH   3   2
BRANCH   3   4
ATOM      4  C   UNL     1      46.065  20.886  19.802  0.00  0.00    -0.105 C 
ATOM      5  C   UNL     1      47.201  20.799  19.518  0.00  0.00    -0.064 C 
BRANCH   5   6
ATOM      6  C   UNL     1      48.534  20.697  19.185  0.00  0.00    -0.035 C 
ATOM      7  C   UNL     1      49.669  20.610  18.902  0.00  0.00    -0.121 C 
BRANCH   7   8
ATOM      8  C   UNL     1      51.093  20.501  18.547  0.00  0.00    +0.360 C 
BRANCH   8  13
ATOM     13  C   UNL     1      51.932  20.612  19.794  0.00  0.00    -0.047 C 
ATOM     14  C   UNL     1      52.692  21.663  19.981  0.00  0.00    +0.053 C 
ENDBRANCH   8  13
BRANCH   8   9
ATOM      9  O   UNL     1      51.333  19.238  17.922  0.00  0.00    -0.342 OA
BRANCH   9  10
ATOM     10  C   UNL     1      51.642  19.253  16.616  0.00  0.00    +0.460 C 
ATOM     11  C   UNL     1      52.046  20.544  15.952  0.00  0.00    +0.165 C 
ATOM     12  O   UNL     1      51.594  18.231  15.972  0.00  0.00    -0.501 OA
ENDBRANCH   9  10
ENDBRANCH   8   9
ENDBRANCH   7   8
ENDBRANCH   5   6
ENDBRANCH   3   4
BRANCH   3  15
ATOM     15  C   UNL     1      43.804  20.184  19.166  0.00  0.00    +0.048 C 
BRANCH  15  16
ATOM     16  C   UNL     1      42.853  19.264  19.934  0.00  0.00    +0.009 C 
BRANCH  16  17
ATOM     17  C   UNL     1      43.252  19.236  21.411  0.00  0.00    +0.009 C 
BRANCH  17  18
ATOM     18  C   UNL     1      43.119  17.809  21.948  0.00  0.00    +0.004 C 
BRANCH  18  19
ATOM     19  C   UNL     1      44.153  16.910  21.267  0.00  0.00    +0.009 C 
BRANCH  19  20
ATOM     20  C   UNL     1      45.560  17.393  21.621  0.00  0.00    +0.014 C 
BRANCH  20  21
ATOM     21  C   UNL     1      46.465  17.271  20.393  0.00  0.00    +0.030 C 
BRANCH  21  22
ATOM     22  C   UNL     1      45.620  16.914  19.169  0.00  0.00    +0.198 C 
BRANCH  22  23
ATOM     23  O   UNL     1      46.050  17.690  18.049  0.00  0.00    -0.354 OA
BRANCH  23  24
ATOM     24  C   UNL     1      46.874  17.093  17.174  0.00  0.00    +0.459 C 
ATOM     25  C   UNL     1      48.349  17.403  17.196  0.00  0.00    +0.156 C 
ATOM     26  O   UNL     1      46.434  16.307  16.370  0.00  0.00    -0.514 OA
ENDBRANCH  23  24
ENDBRANCH  22  23
ENDBRANCH  21  22
ENDBRANCH  20  21
ENDBRANCH  19  20
ENDBRANCH  18  19
ENDBRANCH  17  18
ENDBRANCH  16  17
ENDBRANCH  15  16
ENDBRANCH   3  15
TORSDOF 17
ENDMDL
MODEL 2
REMARK VINA RESULT:      -4.6      2.119      5.048
REMARK  Name = ZINC95486061
REMARK  20 active torsions:
REMARK  status: ('A' for Active; 'I' for Inactive)
REMARK    1  A    between atoms: C1_1  and  C2_2
REMARK    2  A    between atoms: C2_2  and  C3_4
REMARK    3  A    between atoms: C3_4  and  C4_6
REMARK    4  A    between atoms: C3_4  and  C14_18
REMARK    5  A    between atoms: C4_6  and  C5_7
REMARK    6  A    between atoms: C5_7  and  C6_8
REMARK    7  A    between atoms: C6_8  and  C7_9
REMARK    8  A    between atoms: C7_9  and  C8_10
REMARK    9  A    between atoms: C8_10  and  C9_11
REMARK   10  A    between atoms: C9_11  and  C10_12
REMARK   11  A    between atoms: C10_12  and  C11_13
REMARK   12  A    between atoms: C11_13  and  O2_14
REMARK   13  A    between atoms: O2_14  and  C12_15
REMARK   14  A    between atoms: C12_15  and  C13_17
REMARK   15  A    between atoms: C15_19  and  C16_20
REMARK   16  A    between atoms: C17_21  and  C18_22
REMARK   17  A    between atoms: C18_22  and  C19_24
REMARK   18  A    between atoms: C18_22  and  O4_26
REMARK   19  A    between atoms: O4_26  and  C21_27
REMARK   20  A    between atoms: C21_27  and  C22_29
REMARK                            x       y       z     vdW  Elec       q    Type
REMARK                         _______ _______ _______ _____ _____    ______ ____
ROOT
ATOM      3  C   UNL     1      43.437  20.859  19.138  0.00  0.00    +0.105 C 
ENDROOT
BRANCH   3   2
ATOM      1  C   UNL     1      40.885  20.345  18.947  0.00  0.00    +0.073 C 
ATOM      2  C   UNL     1      42.229  20.068  19.570  0.00  0.00    +0.365 C 
ATOM     27  O   UNL     1      42.338  19.214  20.416  0.00  0.00    -0.437 OA
ENDBRANCH   3   2
BRANCH   3   4
ATOM      4  C   UNL     1      44.490  19.936  18.682  0.00  0.00    -0.105 C 
ATOM      5  C   UNL     1      45.329  19.200  18.318  0.00  0.00    -0.064 C 
BRANCH   5   6
ATOM      6  C   UNL     1      46.315  18.337  17.893  0.00  0.00    -0.035 C 
ATOM      7  C   UNL     1      47.154  17.602  17.530  0.00  0.00    -0.121 C 
BRANCH   7   8
ATOM      8  C   UNL     1      48.206  16.679  17.074  0.00  0.00    +0.360 C 
BRANCH   8  13
ATOM     13  C   UNL     1      49.552  17.343  17.215  0.00  0.00    -0.047 C 
ATOM     14  C   UNL     1      50.284  17.121  18.278  0.00  0.00    +0.053 C 
ENDBRANCH   8  13
BRANCH   8   9
ATOM      9  O   UNL     1      48.176  15.492  17.869  0.00  0.00    -0.342 OA
BRANCH   9  10
ATOM     10  C   UNL     1      47.242  14.577  17.563  0.00  0.00    +0.460 C 
ATOM     11  C   UNL     1      47.256  13.909  16.213  0.00  0.00    +0.165 C 
ATOM     12  O   UNL     1      46.389  14.291  18.371  0.00  0.00    -0.501 OA
ENDBRANCH   9  10
ENDBRANCH   8   9
ENDBRANCH   7   8
ENDBRANCH   5   6
ENDBRANCH   3   4
BRANCH   3  15
ATOM     15  C   UNL     1      43.957  21.683  20.317  0.00  0.00    +0.048 C 
BRANCH  15  16
ATOM     16  C   UNL     1      45.111  22.572  19.848  0.00  0.00    +0.009 C 
BRANCH  16  17
ATOM     17  C   UNL     1      46.135  22.715  20.976  0.00  0.00    +0.009 C 
BRANCH  17  18
ATOM     18  C   UNL     1      46.610  21.328  21.412  0.00  0.00    +0.004 C 
BRANCH  18  19
ATOM     19  C   UNL     1      48.128  21.232  21.244  0.00  0.00    +0.009 C 
BRANCH  19  20
ATOM     20  C   UNL     1      48.460  20.136  20.229  0.00  0.00    +0.014 C 
BRANCH  20  21
ATOM     21  C   UNL     1      49.029  20.772  18.959  0.00  0.00    +0.030 C 
BRANCH  21  22
ATOM     22  C   UNL     1      50.555  20.819  19.052  0.00  0.00    +0.198 C 
BRANCH  22  23
ATOM     23  O   UNL     1      51.102  21.115  17.765  0.00  0.00    -0.354 OA
BRANCH  23  24
ATOM     24  C   UNL     1      52.037  20.276  17.293  0.00  0.00    +0.459 C 
ATOM     25  C   UNL     1      52.080  19.947  15.823  0.00  0.00    +0.156 C 
ATOM     26  O   UNL     1      52.844  19.784  18.045  0.00  0.00    -0.514 OA
ENDBRANCH  23  24
ENDBRANCH  22  23
ENDBRANCH  21  22
ENDBRANCH  20  21
ENDBRANCH  19  20
ENDBRANCH  18  19
ENDBRANCH  17  18
ENDBRANCH  16  17
ENDBRANCH  15  16
ENDBRANCH   3  15
TORSDOF 17
ENDMDL
MODEL 3
REMARK VINA RESULT:      -4.5      2.036      6.794
REMARK  Name = ZINC95486061
REMARK  20 active torsions:
REMARK  status: ('A' for Active; 'I' for Inactive)
REMARK    1  A    between atoms: C1_1  and  C2_2
REMARK    2  A    between atoms: C2_2  and  C3_4
REMARK    3  A    between atoms: C3_4  and  C4_6
REMARK    4  A    between atoms: C3_4  and  C14_18
REMARK    5  A    between atoms: C4_6  and  C5_7
REMARK    6  A    between atoms: C5_7  and  C6_8
REMARK    7  A    between atoms: C6_8  and  C7_9
REMARK    8  A    between atoms: C7_9  and  C8_10
REMARK    9  A    between atoms: C8_10  and  C9_11
REMARK   10  A    between atoms: C9_11  and  C10_12
REMARK   11  A    between atoms: C10_12  and  C11_13
REMARK   12  A    between atoms: C11_13  and  O2_14
REMARK   13  A    between atoms: O2_14  and  C12_15
REMARK   14  A    between atoms: C12_15  and  C13_17
REMARK   15  A    between atoms: C15_19  and  C16_20
REMARK   16  A    between atoms: C17_21  and  C18_22
REMARK   17  A    between atoms: C18_22  and  C19_24
REMARK   18  A    between atoms: C18_22  and  O4_26
REMARK   19  A    between atoms: O4_26  and  C21_27
REMARK   20  A    between atoms: C21_27  and  C22_29
REMARK                            x       y       z     vdW  Elec       q    Type
REMARK                         _______ _______ _______ _____ _____    ______ ____
ROOT
ATOM      3  C   UNL     1      51.715  21.150  18.660  0.00  0.00    +0.105 C 
ENDROOT
BRANCH   3   2
ATOM      1  C   UNL     1      52.397  20.290  21.028  0.00  0.00    +0.073 C 
ATOM      2  C   UNL     1      52.435  21.360  19.966  0.00  0.00    +0.365 C 
ATOM     27  O   UNL     1      53.043  22.384  20.163  0.00  0.00    -0.437 OA
ENDBRANCH   3   2
BRANCH   3   4
ATOM      4  C   UNL     1      50.283  20.927  18.919  0.00  0.00    -0.105 C 
ATOM      5  C   UNL     1      49.141  20.749  19.126  0.00  0.00    -0.064 C 
BRANCH   5   6
ATOM      6  C   UNL     1      47.802  20.540  19.369  0.00  0.00    -0.035 C 
ATOM      7  C   UNL     1      46.660  20.363  19.577  0.00  0.00    -0.121 C 
BRANCH   7   8
ATOM      8  C   UNL     1      45.229  20.141  19.837  0.00  0.00    +0.360 C 
BRANCH   8  13
ATOM     13  C   UNL     1      44.426  21.249  19.207  0.00  0.00    -0.047 C 
ATOM     14  C   UNL     1      44.317  22.406  19.814  0.00  0.00    +0.053 C 
ENDBRANCH   8  13
BRANCH   8   9
ATOM      9  O   UNL     1      44.832  18.887  19.276  0.00  0.00    -0.342 OA
BRANCH   9  10
ATOM     10  C   UNL     1      44.284  17.992  20.112  0.00  0.00    +0.460 C 
ATOM     11  C   UNL     1      44.895  16.622  20.255  0.00  0.00    +0.165 C 
ATOM     12  O   UNL     1      43.300  18.283  20.750  0.00  0.00    -0.501 OA
ENDBRANCH   9  10
ENDBRANCH   8   9
ENDBRANCH   7   8
ENDBRANCH   5   6
ENDBRANCH   3   4
BRANCH   3  15
ATOM     15  C   UNL     1      52.299  19.930  17.945  0.00  0.00    +0.048 C 
BRANCH  15  16
ATOM     16  C   UNL     1      51.591  19.739  16.601  0.00  0.00    +0.009 C 
BRANCH  16  17
ATOM     17  C   UNL     1      51.230  18.263  16.420  0.00  0.00    +0.009 C 
BRANCH  17  18
ATOM     18  C   UNL     1      51.255  17.562  17.780  0.00  0.00    +0.004 C 
BRANCH  18  19
ATOM     19  C   UNL     1      49.823  17.248  18.218  0.00  0.00    +0.009 C 
BRANCH  19  20
ATOM     20  C   UNL     1      48.898  17.285  17.000  0.00  0.00    +0.014 C 
BRANCH  20  21
ATOM     21  C   UNL     1      47.448  17.430  17.465  0.00  0.00    +0.030 C 
BRANCH  21  22
ATOM     22  C   UNL     1      46.643  16.210  17.014  0.00  0.00    +0.198 C 
BRANCH  22  23
ATOM     23  O   UNL     1      46.980  15.088  17.833  0.00  0.00    -0.354 OA
BRANCH  23  24
ATOM     24  C   UNL     1      46.417  13.911  17.516  0.00  0.00    +0.459 C 
ATOM     25  C   UNL     1      45.430  13.270  18.457  0.00  0.00    +0.156 C 
ATOM     26  O   UNL     1      46.702  13.366  16.477  0.00  0.00    -0.514 OA
ENDBRANCH  23  24
ENDBRANCH  22  23
ENDBRANCH  21  22
ENDBRANCH  20  21
ENDBRANCH  19  20
ENDBRANCH  18  19
ENDBRANCH  17  18
ENDBRANCH  16  17
ENDBRANCH  15  16
ENDBRANCH   3  15
TORSDOF 17
ENDMDL
MODEL 4
REMARK VINA RESULT:      -4.5      1.906      6.905
REMARK  Name = ZINC95486061
REMARK  20 active torsions:
REMARK  status: ('A' for Active; 'I' for Inactive)
REMARK    1  A    between atoms: C1_1  and  C2_2
REMARK    2  A    between atoms: C2_2  and  C3_4
REMARK    3  A    between atoms: C3_4  and  C4_6
REMARK    4  A    between atoms: C3_4  and  C14_18
REMARK    5  A    between atoms: C4_6  and  C5_7
REMARK    6  A    between atoms: C5_7  and  C6_8
REMARK    7  A    between atoms: C6_8  and  C7_9
REMARK    8  A    between atoms: C7_9  and  C8_10
REMARK    9  A    between atoms: C8_10  and  C9_11
REMARK   10  A    between atoms: C9_11  and  C10_12
REMARK   11  A    between atoms: C10_12  and  C11_13
REMARK   12  A    between atoms: C11_13  and  O2_14
REMARK   13  A    between atoms: O2_14  and  C12_15
REMARK   14  A    between atoms: C12_15  and  C13_17
REMARK   15  A    between atoms: C15_19  and  C16_20
REMARK   16  A    between atoms: C17_21  and  C18_22
REMARK   17  A    between atoms: C18_22  and  C19_24
REMARK   18  A    between atoms: C18_22  and  O4_26
REMARK   19  A    between atoms: O4_26  and  C21_27
REMARK   20  A    between atoms: C21_27  and  C22_29
REMARK                            x       y       z     vdW  Elec       q    Type
REMARK                         _______ _______ _______ _____ _____    ______ ____
ROOT
ATOM      3  C   UNL     1      51.575  20.767  18.679  0.00  0.00    +0.105 C 
ENDROOT
BRANCH   3   2
ATOM      1  C   UNL     1      52.221  20.148  21.130  0.00  0.00    +0.073 C 
ATOM      2  C   UNL     1      52.300  21.093  19.959  0.00  0.00    +0.365 C 
ATOM     27  O   UNL     1      52.944  22.110  20.046  0.00  0.00    -0.437 OA
ENDBRANCH   3   2
BRANCH   3   4
ATOM      4  C   UNL     1      50.122  20.807  18.915  0.00  0.00    -0.105 C 
ATOM      5  C   UNL     1      48.963  20.839  19.103  0.00  0.00    -0.064 C 
BRANCH   5   6
ATOM      6  C   UNL     1      47.604  20.877  19.323  0.00  0.00    -0.035 C 
ATOM      7  C   UNL     1      46.447  20.910  19.510  0.00  0.00    -0.121 C 
BRANCH   7   8
ATOM      8  C   UNL     1      44.994  20.951  19.745  0.00  0.00    +0.360 C 
BRANCH   8  13
ATOM     13  C   UNL     1      44.529  22.384  19.769  0.00  0.00    -0.047 C 
ATOM     14  C   UNL     1      44.812  23.147  20.796  0.00  0.00    +0.053 C 
ENDBRANCH   8  13
BRANCH   8   9
ATOM      9  O   UNL     1      44.322  20.249  18.697  0.00  0.00    -0.342 OA
BRANCH   9  10
ATOM     10  C   UNL     1      43.040  19.913  18.912  0.00  0.00    +0.460 C 
ATOM     11  C   UNL     1      42.666  19.113  20.133  0.00  0.00    +0.165 C 
ATOM     12  O   UNL     1      42.187  20.250  18.127  0.00  0.00    -0.501 OA
ENDBRANCH   9  10
ENDBRANCH   8   9
ENDBRANCH   7   8
ENDBRANCH   5   6
ENDBRANCH   3   4
BRANCH   3  15
ATOM     15  C   UNL     1      51.975  19.368  18.207  0.00  0.00    +0.048 C 
BRANCH  15  16
ATOM     16  C   UNL     1      51.920  19.311  16.678  0.00  0.00    +0.009 C 
BRANCH  16  17
ATOM     17  C   UNL     1      51.314  17.977  16.239  0.00  0.00    +0.009 C 
BRANCH  17  18
ATOM     18  C   UNL     1      50.468  17.402  17.378  0.00  0.00    +0.004 C 
BRANCH  18  19
ATOM     19  C   UNL     1      48.985  17.533  17.027  0.00  0.00    +0.009 C 
BRANCH  19  20
ATOM     20  C   UNL     1      48.144  17.369  18.294  0.00  0.00    +0.014 C 
BRANCH  20  21
ATOM     21  C   UNL     1      46.666  17.261  17.915  0.00  0.00    +0.030 C 
BRANCH  21  22
ATOM     22  C   UNL     1      45.823  17.128  19.185  0.00  0.00    +0.198 C 
BRANCH  22  23
ATOM     23  O   UNL     1      45.421  15.766  19.349  0.00  0.00    -0.354 OA
BRANCH  23  24
ATOM     24  C   UNL     1      45.051  15.384  20.582  0.00  0.00    +0.459 C 
ATOM     25  C   UNL     1      45.392  14.002  21.076  0.00  0.00    +0.156 C 
ATOM     26  O   UNL     1      44.446  16.149  21.295  0.00  0.00    -0.514 OA
ENDBRANCH  23  24
ENDBRANCH  22  23
ENDBRANCH  21  22
ENDBRANCH  20  21
ENDBRANCH  19  20
ENDBRANCH  18  19
ENDBRANCH  17  18
ENDBRANCH  16  17
ENDBRANCH  15  16
ENDBRANCH   3  15
TORSDOF 17
ENDMDL
MODEL 5
REMARK VINA RESULT:      -4.5      2.026      6.982
REMARK  Name = ZINC95486061
REMARK  20 active torsions:
REMARK  status: ('A' for Active; 'I' for Inactive)
REMARK    1  A    between atoms: C1_1  and  C2_2
REMARK    2  A    between atoms: C2_2  and  C3_4
REMARK    3  A    between atoms: C3_4  and  C4_6
REMARK    4  A    between atoms: C3_4  and  C14_18
REMARK    5  A    between atoms: C4_6  and  C5_7
REMARK    6  A    between atoms: C5_7  and  C6_8
REMARK    7  A    between atoms: C6_8  and  C7_9
REMARK    8  A    between atoms: C7_9  and  C8_10
REMARK    9  A    between atoms: C8_10  and  C9_11
REMARK   10  A    between atoms: C9_11  and  C10_12
REMARK   11  A    between atoms: C10_12  and  C11_13
REMARK   12  A    between atoms: C11_13  and  O2_14
REMARK   13  A    between atoms: O2_14  and  C12_15
REMARK   14  A    between atoms: C12_15  and  C13_17
REMARK   15  A    between atoms: C15_19  and  C16_20
REMARK   16  A    between atoms: C17_21  and  C18_22
REMARK   17  A    between atoms: C18_22  and  C19_24
REMARK   18  A    between atoms: C18_22  and  O4_26
REMARK   19  A    between atoms: O4_26  and  C21_27
REMARK   20  A    between atoms: C21_27  and  C22_29
REMARK                            x       y       z     vdW  Elec       q    Type
REMARK                         _______ _______ _______ _____ _____    ______ ____
ROOT
ATOM      3  C   UNL     1      51.655  21.161  18.654  0.00  0.00    +0.105 C 
ENDROOT
BRANCH   3   2
ATOM      1  C   UNL     1      52.207  20.219  21.024  0.00  0.00    +0.073 C 
ATOM      2  C   UNL     1      52.333  21.310  19.991  0.00  0.00    +0.365 C 
ATOM     27  O   UNL     1      52.977  22.301  20.235  0.00  0.00    -0.437 OA
ENDBRANCH   3   2
BRANCH   3   4
ATOM      4  C   UNL     1      50.239  20.815  18.858  0.00  0.00    -0.105 C 
ATOM      5  C   UNL     1      49.109  20.539  19.022  0.00  0.00    -0.064 C 
BRANCH   5   6
ATOM      6  C   UNL     1      47.784  20.215  19.212  0.00  0.00    -0.035 C 
ATOM      7  C   UNL     1      46.655  19.939  19.375  0.00  0.00    -0.121 C 
BRANCH   7   8
ATOM      8  C   UNL     1      45.239  19.593  19.579  0.00  0.00    +0.360 C 
BRANCH   8  13
ATOM     13  C   UNL     1      45.143  18.278  20.308  0.00  0.00    -0.047 C 
ATOM     14  C   UNL     1      45.029  17.161  19.632  0.00  0.00    +0.053 C 
ENDBRANCH   8  13
BRANCH   8   9
ATOM      9  O   UNL     1      44.606  20.614  20.353  0.00  0.00    -0.342 OA
BRANCH   9  10
ATOM     10  C   UNL     1      43.761  21.434  19.707  0.00  0.00    +0.460 C 
ATOM     11  C   UNL     1      43.969  22.925  19.761  0.00  0.00    +0.165 C 
ATOM     12  O   UNL     1      42.833  20.975  19.083  0.00  0.00    -0.501 OA
ENDBRANCH   9  10
ENDBRANCH   8   9
ENDBRANCH   7   8
ENDBRANCH   5   6
ENDBRANCH   3   4
BRANCH   3  15
ATOM     15  C   UNL     1      52.340  20.052  17.854  0.00  0.00    +0.048 C 
BRANCH  15  16
ATOM     16  C   UNL     1      51.753  20.005  16.442  0.00  0.00    +0.009 C 
BRANCH  16  17
ATOM     17  C   UNL     1      51.498  18.550  16.043  0.00  0.00    +0.009 C 
BRANCH  17  18
ATOM     18  C   UNL     1      51.582  17.660  17.285  0.00  0.00    +0.004 C 
BRANCH  18  19
ATOM     19  C   UNL     1      50.334  16.778  17.365  0.00  0.00    +0.009 C 
BRANCH  19  20
ATOM     20  C   UNL     1      49.111  17.585  16.927  0.00  0.00    +0.014 C 
BRANCH  20  21
ATOM     21  C   UNL     1      47.837  16.846  17.344  0.00  0.00    +0.030 C 
BRANCH  21  22
ATOM     22  C   UNL     1      48.043  15.340  17.177  0.00  0.00    +0.198 C 
BRANCH  22  23
ATOM     23  O   UNL     1      46.875  14.761  16.591  0.00  0.00    -0.354 OA
BRANCH  23  24
ATOM     24  C   UNL     1      46.483  13.568  17.064  0.00  0.00    +0.459 C 
ATOM     25  C   UNL     1      45.731  13.484  18.367  0.00  0.00    +0.156 C 
ATOM     26  O   UNL     1      46.732  12.561  16.445  0.00  0.00    -0.514 OA
ENDBRANCH  23  24
ENDBRANCH  22  23
ENDBRANCH  21  22
ENDBRANCH  20  21
ENDBRANCH  19  20
ENDBRANCH  18  19
ENDBRANCH  17  18
ENDBRANCH  16  17
ENDBRANCH  15  16
ENDBRANCH   3  15
TORSDOF 17
ENDMDL
MODEL 6
REMARK VINA RESULT:      -4.4      2.422      6.840
REMARK  Name = ZINC95486061
REMARK  20 active torsions:
REMARK  status: ('A' for Active; 'I' for Inactive)
REMARK    1  A    between atoms: C1_1  and  C2_2
REMARK    2  A    between atoms: C2_2  and  C3_4
REMARK    3  A    between atoms: C3_4  and  C4_6
REMARK    4  A    between atoms: C3_4  and  C14_18
REMARK    5  A    between atoms: C4_6  and  C5_7
REMARK    6  A    between atoms: C5_7  and  C6_8
REMARK    7  A    between atoms: C6_8  and  C7_9
REMARK    8  A    between atoms: C7_9  and  C8_10
REMARK    9  A    between atoms: C8_10  and  C9_11
REMARK   10  A    between atoms: C9_11  and  C10_12
REMARK   11  A    between atoms: C10_12  and  C11_13
REMARK   12  A    between atoms: C11_13  and  O2_14
REMARK   13  A    between atoms: O2_14  and  C12_15
REMARK   14  A    between atoms: C12_15  and  C13_17
REMARK   15  A    between atoms: C15_19  and  C16_20
REMARK   16  A    between atoms: C17_21  and  C18_22
REMARK   17  A    between atoms: C18_22  and  C19_24
REMARK   18  A    between atoms: C18_22  and  O4_26
REMARK   19  A    between atoms: O4_26  and  C21_27
REMARK   20  A    between atoms: C21_27  and  C22_29
REMARK                            x       y       z     vdW  Elec       q    Type
REMARK                         _______ _______ _______ _____ _____    ______ ____
ROOT
ATOM      3  C   UNL     1      50.700  19.820  18.072  0.00  0.00    +0.105 C 
ENDROOT
BRANCH   3   2
ATOM      1  C   UNL     1      52.111  19.340  15.930  0.00  0.00    +0.073 C 
ATOM      2  C   UNL     1      51.381  20.312  16.822  0.00  0.00    +0.365 C 
ATOM     27  O   UNL     1      51.343  21.483  16.534  0.00  0.00    -0.437 OA
ENDBRANCH   3   2
BRANCH   3   4
ATOM      4  C   UNL     1      49.983  18.568  17.780  0.00  0.00    -0.105 C 
ATOM      5  C   UNL     1      49.410  17.569  17.547  0.00  0.00    -0.064 C 
BRANCH   5   6
ATOM      6  C   UNL     1      48.739  16.398  17.274  0.00  0.00    -0.035 C 
ATOM      7  C   UNL     1      48.167  15.401  17.040  0.00  0.00    -0.121 C 
BRANCH   7   8
ATOM      8  C   UNL     1      47.449  14.150  16.747  0.00  0.00    +0.360 C 
BRANCH   8  13
ATOM     13  C   UNL     1      48.297  13.280  15.857  0.00  0.00    -0.047 C 
ATOM     14  C   UNL     1      47.782  12.747  14.776  0.00  0.00    +0.053 C 
ENDBRANCH   8  13
BRANCH   8   9
ATOM      9  O   UNL     1      47.176  13.459  17.968  0.00  0.00    -0.342 OA
BRANCH   9  10
ATOM     10  C   UNL     1      45.896  13.413  18.370  0.00  0.00    +0.460 C 
ATOM     11  C   UNL     1      45.433  14.282  19.511  0.00  0.00    +0.165 C 
ATOM     12  O   UNL     1      45.116  12.674  17.818  0.00  0.00    -0.501 OA
ENDBRANCH   9  10
ENDBRANCH   8   9
ENDBRANCH   7   8
ENDBRANCH   5   6
ENDBRANCH   3   4
BRANCH   3  15
ATOM     15  C   UNL     1      49.705  20.875  18.561  0.00  0.00    +0.048 C 
BRANCH  15  16
ATOM     16  C   UNL     1      49.400  20.640  20.042  0.00  0.00    +0.009 C 
BRANCH  16  17
ATOM     17  C   UNL     1      47.971  20.115  20.191  0.00  0.00    +0.009 C 
BRANCH  17  18
ATOM     18  C   UNL     1      47.101  20.676  19.064  0.00  0.00    +0.004 C 
BRANCH  18  19
ATOM     19  C   UNL     1      46.272  19.546  18.449  0.00  0.00    +0.009 C 
BRANCH  19  20
ATOM     20  C   UNL     1      46.240  18.357  19.410  0.00  0.00    +0.014 C 
BRANCH  20  21
ATOM     21  C   UNL     1      44.795  17.892  19.599  0.00  0.00    +0.030 C 
BRANCH  21  22
ATOM     22  C   UNL     1      44.038  18.911  20.451  0.00  0.00    +0.198 C 
BRANCH  22  23
ATOM     23  O   UNL     1      42.723  19.092  19.922  0.00  0.00    -0.354 OA
BRANCH  23  24
ATOM     24  C   UNL     1      42.501  20.206  19.206  0.00  0.00    +0.459 C 
ATOM     25  C   UNL     1      41.318  20.281  18.277  0.00  0.00    +0.156 C 
ATOM     26  O   UNL     1      43.251  21.148  19.307  0.00  0.00    -0.514 OA
ENDBRANCH  23  24
ENDBRANCH  22  23
ENDBRANCH  21  22
ENDBRANCH  20  21
ENDBRANCH  19  20
ENDBRANCH  18  19
ENDBRANCH  17  18
ENDBRANCH  16  17
ENDBRANCH  15  16
ENDBRANCH   3  15
TORSDOF 17
ENDMDL
MODEL 7
REMARK VINA RESULT:      -4.4      1.601      2.224
REMARK  Name = ZINC95486061
REMARK  20 active torsions:
REMARK  status: ('A' for Active; 'I' for Inactive)
REMARK    1  A    between atoms: C1_1  and  C2_2
REMARK    2  A    between atoms: C2_2  and  C3_4
REMARK    3  A    between atoms: C3_4  and  C4_6
REMARK    4  A    between atoms: C3_4  and  C14_18
REMARK    5  A    between atoms: C4_6  and  C5_7
REMARK    6  A    between atoms: C5_7  and  C6_8
REMARK    7  A    between atoms: C6_8  and  C7_9
REMARK    8  A    between atoms: C7_9  and  C8_10
REMARK    9  A    between atoms: C8_10  and  C9_11
REMARK   10  A    between atoms: C9_11  and  C10_12
REMARK   11  A    between atoms: C10_12  and  C11_13
REMARK   12  A    between atoms: C11_13  and  O2_14
REMARK   13  A    between atoms: O2_14  and  C12_15
REMARK   14  A    between atoms: C12_15  and  C13_17
REMARK   15  A    between atoms: C15_19  and  C16_20
REMARK   16  A    between atoms: C17_21  and  C18_22
REMARK   17  A    between atoms: C18_22  and  C19_24
REMARK   18  A    between atoms: C18_22  and  O4_26
REMARK   19  A    between atoms: O4_26  and  C21_27
REMARK   20  A    between atoms: C21_27  and  C22_29
REMARK                            x       y       z     vdW  Elec       q    Type
REMARK                         _______ _______ _______ _____ _____    ______ ____
ROOT
ATOM      3  C   UNL     1      44.218  20.317  20.429  0.00  0.00    +0.105 C 
ENDROOT
BRANCH   3   2
ATOM      1  C   UNL     1      43.674  22.768  19.717  0.00  0.00    +0.073 C 
ATOM      2  C   UNL     1      43.405  21.289  19.614  0.00  0.00    +0.365 C 
ATOM     27  O   UNL     1      42.538  20.883  18.879  0.00  0.00    -0.437 OA
ENDBRANCH   3   2
BRANCH   3   4
ATOM      4  C   UNL     1      45.636  20.427  20.052  0.00  0.00    -0.105 C 
ATOM      5  C   UNL     1      46.768  20.514  19.751  0.00  0.00    -0.064 C 
BRANCH   5   6
ATOM      6  C   UNL     1      48.096  20.617  19.399  0.00  0.00    -0.035 C 
ATOM      7  C   UNL     1      49.226  20.705  19.099  0.00  0.00    -0.121 C 
BRANCH   7   8
ATOM      8  C   UNL     1      50.645  20.815  18.722  0.00  0.00    +0.360 C 
BRANCH   8  13
ATOM     13  C   UNL     1      51.484  20.976  19.963  0.00  0.00    -0.047 C 
ATOM     14  C   UNL     1      52.525  21.771  19.952  0.00  0.00    +0.053 C 
ENDBRANCH   8  13
BRANCH   8   9
ATOM      9  O   UNL     1      51.047  19.632  18.026  0.00  0.00    -0.342 OA
BRANCH   9  10
ATOM     10  C   UNL     1      51.419  19.776  16.744  0.00  0.00    +0.460 C 
ATOM     11  C   UNL     1      51.681  21.150  16.186  0.00  0.00    +0.165 C 
ATOM     12  O   UNL     1      51.542  18.803  16.039  0.00  0.00    -0.501 OA
ENDBRANCH   9  10
ENDBRANCH   8   9
ENDBRANCH   7   8
ENDBRANCH   5   6
ENDBRANCH   3   4
BRANCH   3  15
ATOM     15  C   UNL     1      43.729  18.892  20.162  0.00  0.00    +0.048 C 
BRANCH  15  16
ATOM     16  C   UNL     1      43.654  18.122  21.482  0.00  0.00    +0.009 C 
BRANCH  16  17
ATOM     17  C   UNL     1      44.281  16.738  21.302  0.00  0.00    +0.009 C 
BRANCH  17  18
ATOM     18  C   UNL     1      45.044  16.693  19.976  0.00  0.00    +0.004 C 
BRANCH  18  19
ATOM     19  C   UNL     1      46.548  16.697  20.254  0.00  0.00    +0.009 C 
BRANCH  19  20
ATOM     20  C   UNL     1      47.304  17.010  18.961  0.00  0.00    +0.014 C 
BRANCH  20  21
ATOM     21  C   UNL     1      46.328  16.990  17.782  0.00  0.00    +0.030 C 
BRANCH  21  22
ATOM     22  C   UNL     1      46.732  15.886  16.805  0.00  0.00    +0.198 C 
BRANCH  22  23
ATOM     23  O   UNL     1      46.492  14.609  17.402  0.00  0.00    -0.354 OA
BRANCH  23  24
ATOM     24  C   UNL     1      46.772  13.527  16.660  0.00  0.00    +0.459 C 
ATOM     25  C   UNL     1      46.090  12.216  16.953  0.00  0.00    +0.156 C 
ATOM     26  O   UNL     1      47.570  13.603  15.757  0.00  0.00    -0.514 OA
ENDBRANCH  23  24
ENDBRANCH  22  23
ENDBRANCH  21  22
ENDBRANCH  20  21
ENDBRANCH  19  20
ENDBRANCH  18  19
ENDBRANCH  17  18
ENDBRANCH  16  17
ENDBRANCH  15  16
ENDBRANCH   3  15
TORSDOF 17
ENDMDL
MODEL 8
REMARK VINA RESULT:      -4.3      1.706      6.767
REMARK  Name = ZINC95486061
REMARK  20 active torsions:
REMARK  status: ('A' for Active; 'I' for Inactive)
REMARK    1  A    between atoms: C1_1  and  C2_2
REMARK    2  A    between atoms: C2_2  and  C3_4
REMARK    3  A    between atoms: C3_4  and  C4_6
REMARK    4  A    between atoms: C3_4  and  C14_18
REMARK    5  A    between atoms: C4_6  and  C5_7
REMARK    6  A    between atoms: C5_7  and  C6_8
REMARK    7  A    between atoms: C6_8  and  C7_9
REMARK    8  A    between atoms: C7_9  and  C8_10
REMARK    9  A    between atoms: C8_10  and  C9_11
REMARK   10  A    between atoms: C9_11  and  C10_12
REMARK   11  A    between atoms: C10_12  and  C11_13
REMARK   12  A    between atoms: C11_13  and  O2_14
REMARK   13  A    between atoms: O2_14  and  C12_15
REMARK   14  A    between atoms: C12_15  and  C13_17
REMARK   15  A    between atoms: C15_19  and  C16_20
REMARK   16  A    between atoms: C17_21  and  C18_22
REMARK   17  A    between atoms: C18_22  and  C19_24
REMARK   18  A    between atoms: C18_22  and  O4_26
REMARK   19  A    between atoms: O4_26  and  C21_27
REMARK   20  A    between atoms: C21_27  and  C22_29
REMARK                            x       y       z     vdW  Elec       q    Type
REMARK                         _______ _______ _______ _____ _____    ______ ____
ROOT
ATOM      3  C   UNL     1      51.221  20.227  18.385  0.00  0.00    +0.105 C 
ENDROOT
BRANCH   3   2
ATOM      1  C   UNL     1      51.854  19.352  16.009  0.00  0.00    +0.073 C 
ATOM      2  C   UNL     1      51.421  20.478  16.913  0.00  0.00    +0.365 C 
ATOM     27  O   UNL     1      51.236  21.580  16.457  0.00  0.00    -0.437 OA
ENDBRANCH   3   2
BRANCH   3   4
ATOM      4  C   UNL     1      49.808  20.447  18.732  0.00  0.00    -0.105 C 
ATOM      5  C   UNL     1      48.680  20.623  19.009  0.00  0.00    -0.064 C 
BRANCH   5   6
ATOM      6  C   UNL     1      47.358  20.828  19.335  0.00  0.00    -0.035 C 
ATOM      7  C   UNL     1      46.231  21.004  19.612  0.00  0.00    -0.121 C 
BRANCH   7   8
ATOM      8  C   UNL     1      44.818  21.224  19.960  0.00  0.00    +0.360 C 
BRANCH   8  13
ATOM     13  C   UNL     1      44.614  22.666  20.345  0.00  0.00    -0.047 C 
ATOM     14  C   UNL     1      44.531  23.587  19.417  0.00  0.00    +0.053 C 
ENDBRANCH   8  13
BRANCH   8   9
ATOM      9  O   UNL     1      43.996  20.910  18.834  0.00  0.00    -0.342 OA
BRANCH   9  10
ATOM     10  C   UNL     1      42.868  20.223  19.074  0.00  0.00    +0.460 C 
ATOM     11  C   UNL     1      42.859  19.132  20.113  0.00  0.00    +0.165 C 
ATOM     12  O   UNL     1      41.862  20.478  18.457  0.00  0.00    -0.501 OA
ENDBRANCH   9  10
ENDBRANCH   8   9
ENDBRANCH   7   8
ENDBRANCH   5   6
ENDBRANCH   3   4
BRANCH   3  15
ATOM     15  C   UNL     1      52.099  21.187  19.190  0.00  0.00    +0.048 C 
BRANCH  15  16
ATOM     16  C   UNL     1      52.093  20.769  20.662  0.00  0.00    +0.009 C 
BRANCH  16  17
ATOM     17  C   UNL     1      52.280  19.254  20.763  0.00  0.00    +0.009 C 
BRANCH  17  18
ATOM     18  C   UNL     1      51.218  18.671  21.698  0.00  0.00    +0.004 C 
BRANCH  18  19
ATOM     19  C   UNL     1      50.884  17.242  21.263  0.00  0.00    +0.009 C 
BRANCH  19  20
ATOM     20  C   UNL     1      49.650  17.260  20.360  0.00  0.00    +0.014 C 
BRANCH  20  21
ATOM     21  C   UNL     1      50.039  16.793  18.955  0.00  0.00    +0.030 C 
BRANCH  21  22
ATOM     22  C   UNL     1      48.816  16.196  18.259  0.00  0.00    +0.198 C 
BRANCH  22  23
ATOM     23  O   UNL     1      48.166  17.207  17.486  0.00  0.00    -0.354 OA
BRANCH  23  24
ATOM     24  C   UNL     1      46.854  17.046  17.250  0.00  0.00    +0.459 C 
ATOM     25  C   UNL     1      45.841  17.674  18.171  0.00  0.00    +0.156 C 
ATOM     26  O   UNL     1      46.486  16.398  16.300  0.00  0.00    -0.514 OA
ENDBRANCH  23  24
ENDBRANCH  22  23
ENDBRANCH  21  22
ENDBRANCH  20  21
ENDBRANCH  19  20
ENDBRANCH  18  19
ENDBRANCH  17  18
ENDBRANCH  16  17
ENDBRANCH  15  16
ENDBRANCH   3  15
TORSDOF 17
ENDMDL
MODEL 9
REMARK VINA RESULT:      -4.3      2.262      7.539
REMARK  Name = ZINC95486061
REMARK  20 active torsions:
REMARK  status: ('A' for Active; 'I' for Inactive)
REMARK    1  A    between atoms: C1_1  and  C2_2
REMARK    2  A    between atoms: C2_2  and  C3_4
REMARK    3  A    between atoms: C3_4  and  C4_6
REMARK    4  A    between atoms: C3_4  and  C14_18
REMARK    5  A    between atoms: C4_6  and  C5_7
REMARK    6  A    between atoms: C5_7  and  C6_8
REMARK    7  A    between atoms: C6_8  and  C7_9
REMARK    8  A    between atoms: C7_9  and  C8_10
REMARK    9  A    between atoms: C8_10  and  C9_11
REMARK   10  A    between atoms: C9_11  and  C10_12
REMARK   11  A    between atoms: C10_12  and  C11_13
REMARK   12  A    between atoms: C11_13  and  O2_14
REMARK   13  A    between atoms: O2_14  and  C12_15
REMARK   14  A    between atoms: C12_15  and  C13_17
REMARK   15  A    between atoms: C15_19  and  C16_20
REMARK   16  A    between atoms: C17_21  and  C18_22
REMARK   17  A    between atoms: C18_22  and  C19_24
REMARK   18  A    between atoms: C18_22  and  O4_26
REMARK   19  A    between atoms: O4_26  and  C21_27
REMARK   20  A    between atoms: C21_27  and  C22_29
REMARK                            x       y       z     vdW  Elec       q    Type
REMARK                         _______ _______ _______ _____ _____    ______ ____
ROOT
ATOM      3  C   UNL     1      46.538  14.554  19.336  0.00  0.00    +0.105 C 
ENDROOT
BRANCH   3   2
ATOM      1  C   UNL     1      46.866  14.331  16.757  0.00  0.00    +0.073 C 
ATOM      2  C   UNL     1      46.202  13.879  18.032  0.00  0.00    +0.365 C 
ATOM     27  O   UNL     1      45.402  12.976  18.008  0.00  0.00    -0.437 OA
ENDBRANCH   3   2
BRANCH   3   4
ATOM      4  C   UNL     1      45.772  15.806  19.452  0.00  0.00    -0.105 C 
ATOM      5  C   UNL     1      45.162  16.805  19.545  0.00  0.00    -0.064 C 
BRANCH   5   6
ATOM      6  C   UNL     1      44.445  17.976  19.653  0.00  0.00    -0.035 C 
ATOM      7  C   UNL     1      43.834  18.973  19.745  0.00  0.00    -0.121 C 
BRANCH   7   8
ATOM      8  C   UNL     1      43.067  20.224  19.861  0.00  0.00    +0.360 C 
BRANCH   8  13
ATOM     13  C   UNL     1      43.966  21.319  20.374  0.00  0.00    -0.047 C 
ATOM     14  C   UNL     1      44.100  22.430  19.692  0.00  0.00    +0.053 C 
ENDBRANCH   8  13
BRANCH   8   9
ATOM      9  O   UNL     1      42.556  20.590  18.577  0.00  0.00    -0.342 OA
BRANCH   9  10
ATOM     10  C   UNL     1      41.229  20.492  18.399  0.00  0.00    +0.460 C 
ATOM     11  C   UNL     1      40.333  21.648  18.762  0.00  0.00    +0.165 C 
ATOM     12  O   UNL     1      40.753  19.477  17.948  0.00  0.00    -0.501 OA
ENDBRANCH   9  10
ENDBRANCH   8   9
ENDBRANCH   7   8
ENDBRANCH   5   6
ENDBRANCH   3   4
BRANCH   3  15
ATOM     15  C   UNL     1      48.035  14.867  19.379  0.00  0.00    +0.048 C 
BRANCH  15  16
ATOM     16  C   UNL     1      48.325  15.815  20.545  0.00  0.00    +0.009 C 
BRANCH  16  17
ATOM     17  C   UNL     1      49.265  16.927  20.076  0.00  0.00    +0.009 C 
BRANCH  17  18
ATOM     18  C   UNL     1      49.182  17.057  18.553  0.00  0.00    +0.004 C 
BRANCH  18  19
ATOM     19  C   UNL     1      48.382  18.310  18.192  0.00  0.00    +0.009 C 
BRANCH  19  20
ATOM     20  C   UNL     1      48.343  19.254  19.395  0.00  0.00    +0.014 C 
BRANCH  20  21
ATOM     21  C   UNL     1      49.007  20.582  19.023  0.00  0.00    +0.030 C 
BRANCH  21  22
ATOM     22  C   UNL     1      50.489  20.534  19.401  0.00  0.00    +0.198 C 
BRANCH  22  23
ATOM     23  O   UNL     1      51.237  21.352  18.498  0.00  0.00    -0.354 OA
BRANCH  23  24
ATOM     24  C   UNL     1      51.508  20.834  17.289  0.00  0.00    +0.459 C 
ATOM     25  C   UNL     1      52.005  19.417  17.171  0.00  0.00    +0.156 C 
ATOM     26  O   UNL     1      51.353  21.505  16.297  0.00  0.00    -0.514 OA
ENDBRANCH  23  24
ENDBRANCH  22  23
ENDBRANCH  21  22
ENDBRANCH  20  21
ENDBRANCH  19  20
ENDBRANCH  18  19
ENDBRANCH  17  18
ENDBRANCH  16  17
ENDBRANCH  15  16
ENDBRANCH   3  15
TORSDOF 17
ENDMDL
