MODEL 1
REMARK VINA RESULT:      -6.8      0.000      0.000
REMARK  Name = ZINC95485976
REMARK  18 active torsions:
REMARK  status: ('A' for Active; 'I' for Inactive)
REMARK    1  A    between atoms: C1_1  and  C2_2
REMARK    2  A    between atoms: C4_4  and  O9_51
REMARK    3  A    between atoms: C7_7  and  C8_8
REMARK    4  A    between atoms: C13_14  and  C23_28
REMARK    5  A    between atoms: C15_16  and  O4_27
REMARK    6  A    between atoms: C17_18  and  O3_26
REMARK    7  A    between atoms: C21_23  and  C22_24
REMARK    8  A    between atoms: C21_23  and  O2_25
REMARK    9  A    between atoms: C23_28  and  C24_29
REMARK   10  A    between atoms: C24_29  and  C25_30
REMARK   11  A    between atoms: C26_31  and  C27_32
REMARK   12  A    between atoms: C26_31  and  C28_33
REMARK   13  A    between atoms: C28_33  and  C29_34
REMARK   14  A    between atoms: C29_34  and  C30_35
REMARK   15  A    between atoms: C31_36  and  C32_37
REMARK   16  A    between atoms: C31_36  and  C33_38
REMARK   17  A    between atoms: C37_43  and  O8_50
REMARK   18  A    between atoms: C39_45  and  O7_49
REMARK                            x       y       z     vdW  Elec       q    Type
REMARK                         _______ _______ _______ _____ _____    ______ ____
ROOT
ATOM     24  C   UNL     1      47.788  14.461  19.006  0.00  0.00    +0.121 C 
ATOM     25  C   UNL     1      47.923  15.757  19.763  0.00  0.00    +0.013 A 
ATOM     26  C   UNL     1      49.134  16.377  19.777  0.00  0.00    -0.013 A 
ATOM     27  C   UNL     1      49.311  17.592  20.466  0.00  0.00    +0.016 A 
ATOM     28  C   UNL     1      50.558  18.236  20.484  0.00  0.00    +0.002 A 
ATOM     29  C   UNL     1      50.708  19.412  21.156  0.00  0.00    -0.037 A 
ATOM     41  C   UNL     1      49.643  19.995  21.833  0.00  0.00    -0.019 A 
ATOM     42  C   UNL     1      48.402  19.394  21.841  0.00  0.00    +0.148 A 
ATOM     45  C   UNL     1      48.218  18.177  21.153  0.00  0.00    -0.129 A 
ATOM     46  C   UNL     1      46.968  17.532  21.137  0.00  0.00    +0.212 A 
ATOM     49  C   UNL     1      46.829  16.326  20.446  0.00  0.00    -0.205 A 
ATOM     50  C   UNL     1      45.526  15.647  20.439  0.00  0.00    +0.406 C 
ATOM     51  C   UNL     1      45.335  14.495  19.476  0.00  0.00    +0.023 C 
ATOM     52  O   UNL     1      44.632  15.999  21.181  0.00  0.00    -0.436 OA
ATOM     53  C   UNL     1      46.610  13.641  19.524  0.00  0.00    +0.146 C 
ATOM     56  C   UNL     1      46.426  12.402  18.646  0.00  0.00    +0.027 C 
ENDROOT
BRANCH  24  23
ATOM      1  C   UNL     1      48.833  13.930  21.642  0.00  0.00    +0.127 C 
ATOM      2  C   UNL     1      49.557  13.405  20.429  0.00  0.00    -0.006 A 
ATOM      3  C   UNL     1      50.714  12.668  20.587  0.00  0.00    +0.011 A 
ATOM      4  C   UNL     1      51.394  12.177  19.476  0.00  0.00    +0.170 A 
ATOM      7  C   UNL     1      50.901  12.434  18.194  0.00  0.00    -0.159 A 
ATOM      8  C   UNL     1      49.721  13.186  18.039  0.00  0.00    -0.107 A 
ATOM      9  C   UNL     1      49.193  13.462  16.688  0.00  0.00    +0.446 C 
ATOM     10  C   UNL     1      49.906  12.946  15.500  0.00  0.00    -0.090 A 
ATOM     11  C   UNL     1      49.418  13.202  14.225  0.00  0.00    +0.051 A 
ATOM     12  C   UNL     1      50.095  12.713  13.110  0.00  0.00    +0.149 A 
ATOM     15  C   UNL     1      51.256  11.974  13.262  0.00  0.00    -0.004 A 
ATOM     16  C   UNL     1      51.758  11.709  14.530  0.00  0.00    +0.181 A 
ATOM     19  C   UNL     1      51.087  12.195  15.660  0.00  0.00    -0.158 A 
ATOM     20  O   UNL     1      48.174  14.110  16.552  0.00  0.00    -0.418 OA
ATOM     21  C   UNL     1      51.611  11.920  17.007  0.00  0.00    +0.431 C 
ATOM     22  O   UNL     1      52.630  11.271  17.144  0.00  0.00    -0.401 OA
ATOM     23  C   UNL     1      49.055  13.661  19.164  0.00  0.00    -0.028 A 
BRANCH   4   5
ATOM      5  O   UNL     1      52.530  11.455  19.638  0.00  0.00    -0.476 OA
ATOM      6  H   UNL     1      52.959  11.207  18.808  0.00  0.00    +0.400 HD
ENDBRANCH   4   5
BRANCH  12  13
ATOM     13  O   UNL     1      49.613  12.965  11.866  0.00  0.00    -0.489 OA
ATOM     14  H   UNL     1      49.847  13.839  11.523  0.00  0.00    +0.402 HD
ENDBRANCH  12  13
BRANCH  16  17
ATOM     17  O   UNL     1      52.894  10.984  14.675  0.00  0.00    -0.472 OA
ATOM     18  H   UNL     1      53.701  11.517  14.693  0.00  0.00    +0.402 HD
ENDBRANCH  16  17
ENDBRANCH  24  23
BRANCH  42  43
ATOM     43  O   UNL     1      47.367  19.968  22.505  0.00  0.00    -0.478 OA
ATOM     44  H   UNL     1      46.946  20.694  22.025  0.00  0.00    +0.389 HD
ENDBRANCH  42  43
BRANCH  46  47
ATOM     47  O   UNL     1      45.911  18.074  21.786  0.00  0.00    -0.458 OA
ATOM     48  H   UNL     1      46.102  18.922  22.209  0.00  0.00    +0.392 HD
ENDBRANCH  46  47
BRANCH  53  54
ATOM     54  O   UNL     1      46.865  13.240  20.871  0.00  0.00    -0.540 OA
ATOM     55  H   UNL     1      46.883  12.281  20.998  0.00  0.00    +0.370 HD
ENDBRANCH  53  54
BRANCH  29  30
ATOM     30  C   UNL     1      52.053  20.093  21.166  0.00  0.00    +0.073 C 
BRANCH  30  31
ATOM     31  C   UNL     1      51.990  21.359  20.308  0.00  0.00    +0.060 C 
BRANCH  31  32
ATOM     32  C   UNL     1      52.473  21.047  18.916  0.00  0.00    -0.057 C 
ATOM     33  C   UNL     1      51.622  21.001  17.921  0.00  0.00    -0.122 C 
ATOM     40  C   UNL     1      50.145  21.133  18.187  0.00  0.00    +0.072 C 
BRANCH  33  34
ATOM     34  C   UNL     1      52.120  20.819  16.510  0.00  0.00    +0.058 C 
BRANCH  34  35
ATOM     35  C   UNL     1      51.403  19.630  15.867  0.00  0.00    +0.054 C 
BRANCH  35  36
ATOM     36  C   UNL     1      51.980  18.346  16.404  0.00  0.00    -0.062 C 
ATOM     37  C   UNL     1      51.184  17.394  16.824  0.00  0.00    -0.132 C 
ATOM     38  C   UNL     1      51.761  16.098  17.333  0.00  0.00    +0.071 C 
ATOM     39  C   UNL     1      49.691  17.596  16.797  0.00  0.00    +0.072 C 
ENDBRANCH  35  36
ENDBRANCH  34  35
ENDBRANCH  33  34
ENDBRANCH  31  32
ENDBRANCH  30  31
ENDBRANCH  29  30
TORSDOF 13
ENDMDL
MODEL 2
REMARK VINA RESULT:      -6.4      1.677      2.468
REMARK  Name = ZINC95485976
REMARK  18 active torsions:
REMARK  status: ('A' for Active; 'I' for Inactive)
REMARK    1  A    between atoms: C1_1  and  C2_2
REMARK    2  A    between atoms: C4_4  and  O9_51
REMARK    3  A    between atoms: C7_7  and  C8_8
REMARK    4  A    between atoms: C13_14  and  C23_28
REMARK    5  A    between atoms: C15_16  and  O4_27
REMARK    6  A    between atoms: C17_18  and  O3_26
REMARK    7  A    between atoms: C21_23  and  C22_24
REMARK    8  A    between atoms: C21_23  and  O2_25
REMARK    9  A    between atoms: C23_28  and  C24_29
REMARK   10  A    between atoms: C24_29  and  C25_30
REMARK   11  A    between atoms: C26_31  and  C27_32
REMARK   12  A    between atoms: C26_31  and  C28_33
REMARK   13  A    between atoms: C28_33  and  C29_34
REMARK   14  A    between atoms: C29_34  and  C30_35
REMARK   15  A    between atoms: C31_36  and  C32_37
REMARK   16  A    between atoms: C31_36  and  C33_38
REMARK   17  A    between atoms: C37_43  and  O8_50
REMARK   18  A    between atoms: C39_45  and  O7_49
REMARK                            x       y       z     vdW  Elec       q    Type
REMARK                         _______ _______ _______ _____ _____    ______ ____
ROOT
ATOM     24  C   UNL     1      48.165  14.552  18.567  0.00  0.00    +0.121 C 
ATOM     25  C   UNL     1      48.090  16.048  18.734  0.00  0.00    +0.013 A 
ATOM     26  C   UNL     1      49.211  16.784  18.508  0.00  0.00    -0.013 A 
ATOM     27  C   UNL     1      49.190  18.185  18.644  0.00  0.00    +0.016 A 
ATOM     28  C   UNL     1      50.345  18.949  18.412  0.00  0.00    +0.002 A 
ATOM     29  C   UNL     1      50.304  20.305  18.549  0.00  0.00    -0.037 A 
ATOM     41  C   UNL     1      49.132  20.955  18.918  0.00  0.00    -0.019 A 
ATOM     42  C   UNL     1      47.978  20.241  19.156  0.00  0.00    +0.148 A 
ATOM     45  C   UNL     1      47.991  18.838  19.021  0.00  0.00    -0.129 A 
ATOM     46  C   UNL     1      46.834  18.073  19.255  0.00  0.00    +0.212 A 
ATOM     49  C   UNL     1      46.890  16.684  19.113  0.00  0.00    -0.205 A 
ATOM     50  C   UNL     1      45.684  15.886  19.369  0.00  0.00    +0.406 C 
ATOM     51  C   UNL     1      45.701  14.429  18.956  0.00  0.00    +0.023 C 
ATOM     52  O   UNL     1      44.706  16.377  19.893  0.00  0.00    -0.436 OA
ATOM     53  C   UNL     1      47.065  13.854  19.362  0.00  0.00    +0.146 C 
ATOM     56  C   UNL     1      47.094  12.354  19.062  0.00  0.00    +0.027 C 
ENDROOT
BRANCH  24  23
ATOM      1  C   UNL     1      49.085  15.268  21.208  0.00  0.00    +0.127 C 
ATOM      2  C   UNL     1      49.950  14.410  20.319  0.00  0.00    -0.006 A 
ATOM      3  C   UNL     1      51.175  13.969  20.776  0.00  0.00    +0.011 A 
ATOM      4  C   UNL     1      51.985  13.177  19.967  0.00  0.00    +0.170 A 
ATOM      7  C   UNL     1      51.553  12.830  18.684  0.00  0.00    -0.159 A 
ATOM      8  C   UNL     1      50.303  13.283  18.223  0.00  0.00    -0.107 A 
ATOM      9  C   UNL     1      49.839  12.921  16.870  0.00  0.00    +0.446 C 
ATOM     10  C   UNL     1      50.691  12.081  16.000  0.00  0.00    -0.090 A 
ATOM     11  C   UNL     1      50.263  11.737  14.725  0.00  0.00    +0.051 A 
ATOM     12  C   UNL     1      51.070  10.945  13.911  0.00  0.00    +0.149 A 
ATOM     15  C   UNL     1      52.301  10.499  14.364  0.00  0.00    -0.004 A 
ATOM     16  C   UNL     1      52.743  10.835  15.637  0.00  0.00    +0.181 A 
ATOM     19  C   UNL     1      51.941  11.630  16.466  0.00  0.00    -0.158 A 
ATOM     20  O   UNL     1      48.760  13.311  16.470  0.00  0.00    -0.418 OA
ATOM     21  C   UNL     1      52.401  11.991  17.816  0.00  0.00    +0.431 C 
ATOM     22  O   UNL     1      53.481  11.601  18.216  0.00  0.00    -0.401 OA
ATOM     23  C   UNL     1      49.507  14.068  19.052  0.00  0.00    -0.028 A 
BRANCH   4   5
ATOM      5  O   UNL     1      53.188  12.746  20.422  0.00  0.00    -0.476 OA
ATOM      6  H   UNL     1      53.605  13.345  21.057  0.00  0.00    +0.400 HD
ENDBRANCH   4   5
BRANCH  12  13
ATOM     13  O   UNL     1      50.648  10.609  12.665  0.00  0.00    -0.489 OA
ATOM     14  H   UNL     1      51.344  10.251  12.097  0.00  0.00    +0.402 HD
ENDBRANCH  12  13
BRANCH  16  17
ATOM     17  O   UNL     1      53.947  10.395  16.077  0.00  0.00    -0.472 OA
ATOM     18  H   UNL     1      54.690  10.961  15.824  0.00  0.00    +0.402 HD
ENDBRANCH  16  17
ENDBRANCH  24  23
BRANCH  42  43
ATOM     43  O   UNL     1      46.837  20.883  19.517  0.00  0.00    -0.478 OA
ATOM     44  H   UNL     1      46.919  21.402  20.329  0.00  0.00    +0.389 HD
ENDBRANCH  42  43
BRANCH  46  47
ATOM     47  O   UNL     1      45.677  18.677  19.615  0.00  0.00    -0.458 OA
ATOM     48  H   UNL     1      45.744  19.637  19.703  0.00  0.00    +0.392 HD
ENDBRANCH  46  47
BRANCH  53  54
ATOM     54  O   UNL     1      47.277  14.067  20.758  0.00  0.00    -0.540 OA
ATOM     55  H   UNL     1      46.559  13.741  21.319  0.00  0.00    +0.370 HD
ENDBRANCH  53  54
BRANCH  29  30
ATOM     30  C   UNL     1      51.552  21.112  18.295  0.00  0.00    +0.073 C 
BRANCH  30  31
ATOM     31  C   UNL     1      52.169  21.530  19.631  0.00  0.00    +0.060 C 
BRANCH  31  32
ATOM     32  C   UNL     1      52.607  20.303  20.388  0.00  0.00    -0.057 C 
ATOM     33  C   UNL     1      52.051  20.008  21.536  0.00  0.00    -0.122 C 
ATOM     40  C   UNL     1      51.066  20.960  22.164  0.00  0.00    +0.072 C 
BRANCH  33  34
ATOM     34  C   UNL     1      52.394  18.714  22.229  0.00  0.00    +0.058 C 
BRANCH  34  35
ATOM     35  C   UNL     1      52.165  17.545  21.269  0.00  0.00    +0.054 C 
BRANCH  35  36
ATOM     36  C   UNL     1      53.457  16.791  21.079  0.00  0.00    -0.062 C 
ATOM     37  C   UNL     1      53.801  16.370  19.888  0.00  0.00    -0.132 C 
ATOM     38  C   UNL     1      55.107  15.643  19.693  0.00  0.00    +0.071 C 
ATOM     39  C   UNL     1      52.891  16.614  18.711  0.00  0.00    +0.072 C 
ENDBRANCH  35  36
ENDBRANCH  34  35
ENDBRANCH  33  34
ENDBRANCH  31  32
ENDBRANCH  30  31
ENDBRANCH  29  30
TORSDOF 13
ENDMDL
MODEL 3
REMARK VINA RESULT:      -6.2      3.277      8.881
REMARK  Name = ZINC95485976
REMARK  18 active torsions:
REMARK  status: ('A' for Active; 'I' for Inactive)
REMARK    1  A    between atoms: C1_1  and  C2_2
REMARK    2  A    between atoms: C4_4  and  O9_51
REMARK    3  A    between atoms: C7_7  and  C8_8
REMARK    4  A    between atoms: C13_14  and  C23_28
REMARK    5  A    between atoms: C15_16  and  O4_27
REMARK    6  A    between atoms: C17_18  and  O3_26
REMARK    7  A    between atoms: C21_23  and  C22_24
REMARK    8  A    between atoms: C21_23  and  O2_25
REMARK    9  A    between atoms: C23_28  and  C24_29
REMARK   10  A    between atoms: C24_29  and  C25_30
REMARK   11  A    between atoms: C26_31  and  C27_32
REMARK   12  A    between atoms: C26_31  and  C28_33
REMARK   13  A    between atoms: C28_33  and  C29_34
REMARK   14  A    between atoms: C29_34  and  C30_35
REMARK   15  A    between atoms: C31_36  and  C32_37
REMARK   16  A    between atoms: C31_36  and  C33_38
REMARK   17  A    between atoms: C37_43  and  O8_50
REMARK   18  A    between atoms: C39_45  and  O7_49
REMARK                            x       y       z     vdW  Elec       q    Type
REMARK                         _______ _______ _______ _____ _____    ______ ____
ROOT
ATOM     24  C   UNL     1      47.649  19.351  19.341  0.00  0.00    +0.121 C 
ATOM     25  C   UNL     1      48.626  18.458  18.622  0.00  0.00    +0.013 A 
ATOM     26  C   UNL     1      48.190  17.255  18.164  0.00  0.00    -0.013 A 
ATOM     27  C   UNL     1      49.063  16.386  17.481  0.00  0.00    +0.016 A 
ATOM     28  C   UNL     1      48.618  15.142  17.006  0.00  0.00    +0.002 A 
ATOM     29  C   UNL     1      49.479  14.316  16.346  0.00  0.00    -0.037 A 
ATOM     41  C   UNL     1      50.803  14.681  16.133  0.00  0.00    -0.019 A 
ATOM     42  C   UNL     1      51.280  15.893  16.585  0.00  0.00    +0.148 A 
ATOM     45  C   UNL     1      50.411  16.767  17.269  0.00  0.00    -0.129 A 
ATOM     46  C   UNL     1      50.859  18.012  17.746  0.00  0.00    +0.212 A 
ATOM     49  C   UNL     1      49.966  18.848  18.421  0.00  0.00    -0.205 A 
ATOM     50  C   UNL     1      50.438  20.143  18.929  0.00  0.00    +0.406 C 
ATOM     51  C   UNL     1      49.399  21.131  19.417  0.00  0.00    +0.023 C 
ATOM     52  O   UNL     1      51.621  20.413  18.956  0.00  0.00    -0.436 OA
ATOM     53  C   UNL     1      48.373  20.345  20.245  0.00  0.00    +0.146 C 
ATOM     56  C   UNL     1      47.358  21.316  20.851  0.00  0.00    +0.027 C 
ENDROOT
BRANCH  24  23
ATOM      1  C   UNL     1      48.719  17.165  20.891  0.00  0.00    +0.127 C 
ATOM      2  C   UNL     1      47.239  17.453  20.923  0.00  0.00    -0.006 A 
ATOM      3  C   UNL     1      46.406  16.672  21.698  0.00  0.00    +0.011 A 
ATOM      4  C   UNL     1      45.038  16.927  21.738  0.00  0.00    +0.170 A 
ATOM      7  C   UNL     1      44.508  17.979  20.987  0.00  0.00    -0.159 A 
ATOM      8  C   UNL     1      45.362  18.771  20.198  0.00  0.00    -0.107 A 
ATOM      9  C   UNL     1      44.810  19.885  19.401  0.00  0.00    +0.446 C 
ATOM     10  C   UNL     1      43.359  20.164  19.434  0.00  0.00    -0.090 A 
ATOM     11  C   UNL     1      42.830  21.209  18.687  0.00  0.00    +0.051 A 
ATOM     12  C   UNL     1      41.462  21.467  18.722  0.00  0.00    +0.149 A 
ATOM     15  C   UNL     1      40.621  20.686  19.498  0.00  0.00    -0.004 A 
ATOM     16  C   UNL     1      41.133  19.638  20.251  0.00  0.00    +0.181 A 
ATOM     19  C   UNL     1      42.508  19.368  20.224  0.00  0.00    -0.158 A 
ATOM     20  O   UNL     1      45.546  20.571  18.719  0.00  0.00    -0.418 OA
ATOM     21  C   UNL     1      43.060  18.259  21.019  0.00  0.00    +0.431 C 
ATOM     22  O   UNL     1      42.323  17.573  21.701  0.00  0.00    -0.401 OA
ATOM     23  C   UNL     1      46.727  18.503  20.178  0.00  0.00    -0.028 A 
BRANCH   4   5
ATOM      5  O   UNL     1      44.225  16.156  22.501  0.00  0.00    -0.476 OA
ATOM      6  H   UNL     1      43.310  16.466  22.537  0.00  0.00    +0.400 HD
ENDBRANCH   4   5
BRANCH  12  13
ATOM     13  O   UNL     1      40.949  22.489  17.991  0.00  0.00    -0.489 OA
ATOM     14  H   UNL     1      41.428  23.324  18.093  0.00  0.00    +0.402 HD
ENDBRANCH  12  13
BRANCH  16  17
ATOM     17  O   UNL     1      40.306  18.878  21.010  0.00  0.00    -0.472 OA
ATOM     18  H   UNL     1      40.637  17.985  21.180  0.00  0.00    +0.402 HD
ENDBRANCH  16  17
ENDBRANCH  24  23
BRANCH  42  43
ATOM     43  O   UNL     1      52.574  16.241  16.373  0.00  0.00    -0.478 OA
ATOM     44  H   UNL     1      53.211  15.552  16.606  0.00  0.00    +0.389 HD
ENDBRANCH  42  43
BRANCH  46  47
ATOM     47  O   UNL     1      52.143  18.397  17.553  0.00  0.00    -0.458 OA
ATOM     48  H   UNL     1      52.641  18.532  18.370  0.00  0.00    +0.392 HD
ENDBRANCH  46  47
BRANCH  53  54
ATOM     54  O   UNL     1      49.043  19.639  21.290  0.00  0.00    -0.540 OA
ATOM     55  H   UNL     1      49.970  19.442  21.100  0.00  0.00    +0.370 HD
ENDBRANCH  53  54
BRANCH  29  30
ATOM     30  C   UNL     1      48.986  12.984  15.841  0.00  0.00    +0.073 C 
BRANCH  30  31
ATOM     31  C   UNL     1      49.764  11.859  16.526  0.00  0.00    +0.060 C 
BRANCH  31  32
ATOM     32  C   UNL     1      49.076  11.484  17.812  0.00  0.00    -0.057 C 
ATOM     33  C   UNL     1      49.638  11.762  18.962  0.00  0.00    -0.122 C 
ATOM     40  C   UNL     1      51.029  12.339  19.000  0.00  0.00    +0.072 C 
BRANCH  33  34
ATOM     34  C   UNL     1      48.894  11.505  20.247  0.00  0.00    +0.058 C 
BRANCH  34  35
ATOM     35  C   UNL     1      48.436  12.837  20.845  0.00  0.00    +0.054 C 
BRANCH  35  36
ATOM     36  C   UNL     1      47.637  13.599  19.819  0.00  0.00    -0.062 C 
ATOM     37  C   UNL     1      46.347  13.761  19.981  0.00  0.00    -0.132 C 
ATOM     38  C   UNL     1      45.553  14.549  18.970  0.00  0.00    +0.071 C 
ATOM     39  C   UNL     1      45.657  13.160  21.179  0.00  0.00    +0.072 C 
ENDBRANCH  35  36
ENDBRANCH  34  35
ENDBRANCH  33  34
ENDBRANCH  31  32
ENDBRANCH  30  31
ENDBRANCH  29  30
TORSDOF 13
ENDMDL
MODEL 4
REMARK VINA RESULT:      -4.7      2.548      7.365
REMARK  Name = ZINC95485976
REMARK  18 active torsions:
REMARK  status: ('A' for Active; 'I' for Inactive)
REMARK    1  A    between atoms: C1_1  and  C2_2
REMARK    2  A    between atoms: C4_4  and  O9_51
REMARK    3  A    between atoms: C7_7  and  C8_8
REMARK    4  A    between atoms: C13_14  and  C23_28
REMARK    5  A    between atoms: C15_16  and  O4_27
REMARK    6  A    between atoms: C17_18  and  O3_26
REMARK    7  A    between atoms: C21_23  and  C22_24
REMARK    8  A    between atoms: C21_23  and  O2_25
REMARK    9  A    between atoms: C23_28  and  C24_29
REMARK   10  A    between atoms: C24_29  and  C25_30
REMARK   11  A    between atoms: C26_31  and  C27_32
REMARK   12  A    between atoms: C26_31  and  C28_33
REMARK   13  A    between atoms: C28_33  and  C29_34
REMARK   14  A    between atoms: C29_34  and  C30_35
REMARK   15  A    between atoms: C31_36  and  C32_37
REMARK   16  A    between atoms: C31_36  and  C33_38
REMARK   17  A    between atoms: C37_43  and  O8_50
REMARK   18  A    between atoms: C39_45  and  O7_49
REMARK                            x       y       z     vdW  Elec       q    Type
REMARK                         _______ _______ _______ _____ _____    ______ ____
ROOT
ATOM     24  C   UNL     1      50.733  14.502  15.906  0.00  0.00    +0.121 C 
ATOM     25  C   UNL     1      49.437  13.751  16.068  0.00  0.00    +0.013 A 
ATOM     26  C   UNL     1      48.636  14.058  17.123  0.00  0.00    -0.013 A 
ATOM     27  C   UNL     1      47.412  13.389  17.315  0.00  0.00    +0.016 A 
ATOM     28  C   UNL     1      46.582  13.702  18.403  0.00  0.00    +0.002 A 
ATOM     29  C   UNL     1      45.400  13.043  18.571  0.00  0.00    -0.037 A 
ATOM     41  C   UNL     1      44.995  12.055  17.680  0.00  0.00    -0.019 A 
ATOM     42  C   UNL     1      45.783  11.717  16.601  0.00  0.00    +0.148 A 
ATOM     45  C   UNL     1      47.009  12.383  16.402  0.00  0.00    -0.129 A 
ATOM     46  C   UNL     1      47.841  12.067  15.313  0.00  0.00    +0.212 A 
ATOM     49  C   UNL     1      49.050  12.750  15.154  0.00  0.00    -0.205 A 
ATOM     50  C   UNL     1      49.923  12.411  14.023  0.00  0.00    +0.406 C 
ATOM     51  C   UNL     1      51.085  13.335  13.726  0.00  0.00    +0.023 C 
ATOM     52  O   UNL     1      49.720  11.423  13.347  0.00  0.00    -0.436 OA
ATOM     53  C   UNL     1      51.730  13.705  15.069  0.00  0.00    +0.146 C 
ATOM     56  C   UNL     1      52.977  14.555  14.817  0.00  0.00    +0.027 C 
ENDROOT
BRANCH  24  23
ATOM      1  C   UNL     1      51.261  12.297  17.691  0.00  0.00    +0.127 C 
ATOM      2  C   UNL     1      51.581  13.705  18.124  0.00  0.00    -0.006 A 
ATOM      3  C   UNL     1      52.130  13.930  19.370  0.00  0.00    +0.011 A 
ATOM      4  C   UNL     1      52.431  15.225  19.783  0.00  0.00    +0.170 A 
ATOM      7  C   UNL     1      52.173  16.301  18.930  0.00  0.00    -0.159 A 
ATOM      8  C   UNL     1      51.613  16.065  17.661  0.00  0.00    -0.107 A 
ATOM      9  C   UNL     1      51.338  17.197  16.753  0.00  0.00    +0.446 C 
ATOM     10  C   UNL     1      51.652  18.576  17.181  0.00  0.00    -0.090 A 
ATOM     11  C   UNL     1      51.396  19.647  16.334  0.00  0.00    +0.051 A 
ATOM     12  C   UNL     1      51.694  20.945  16.743  0.00  0.00    +0.149 A 
ATOM     15  C   UNL     1      52.245  21.177  17.993  0.00  0.00    -0.004 A 
ATOM     16  C   UNL     1      52.508  20.118  18.852  0.00  0.00    +0.181 A 
ATOM     19  C   UNL     1      52.212  18.808  18.452  0.00  0.00    -0.158 A 
ATOM     20  O   UNL     1      50.855  16.995  15.656  0.00  0.00    -0.418 OA
ATOM     21  C   UNL     1      52.486  17.679  19.355  0.00  0.00    +0.431 C 
ATOM     22  O   UNL     1      52.970  17.880  20.453  0.00  0.00    -0.401 OA
ATOM     23  C   UNL     1      51.327  14.762  17.266  0.00  0.00    -0.028 A 
BRANCH   4   5
ATOM      5  O   UNL     1      52.969  15.440  21.009  0.00  0.00    -0.476 OA
ATOM      6  H   UNL     1      53.822  15.895  20.989  0.00  0.00    +0.400 HD
ENDBRANCH   4   5
BRANCH  12  13
ATOM     13  O   UNL     1      51.443  21.988  15.913  0.00  0.00    -0.489 OA
ATOM     14  H   UNL     1      52.120  22.123  15.235  0.00  0.00    +0.402 HD
ENDBRANCH  12  13
BRANCH  16  17
ATOM     17  O   UNL     1      53.048  20.350  20.073  0.00  0.00    -0.472 OA
ATOM     18  H   UNL     1      53.907  20.793  20.046  0.00  0.00    +0.402 HD
ENDBRANCH  16  17
ENDBRANCH  24  23
BRANCH  42  43
ATOM     43  O   UNL     1      45.381  10.751  15.736  0.00  0.00    -0.478 OA
ATOM     44  H   UNL     1      45.591  10.938  14.811  0.00  0.00    +0.389 HD
ENDBRANCH  42  43
BRANCH  46  47
ATOM     47  O   UNL     1      47.474  11.111  14.428  0.00  0.00    -0.458 OA
ATOM     48  H   UNL     1      46.519  10.977  14.366  0.00  0.00    +0.392 HD
ENDBRANCH  46  47
BRANCH  53  54
ATOM     54  O   UNL     1      52.095  12.515  15.768  0.00  0.00    -0.540 OA
ATOM     55  H   UNL     1      53.037  12.459  15.983  0.00  0.00    +0.370 HD
ENDBRANCH  53  54
BRANCH  29  30
ATOM     30  C   UNL     1      44.518  13.391  19.743  0.00  0.00    +0.073 C 
BRANCH  30  31
ATOM     31  C   UNL     1      45.338  13.335  21.033  0.00  0.00    +0.060 C 
BRANCH  31  32
ATOM     32  C   UNL     1      45.843  14.715  21.368  0.00  0.00    -0.057 C 
ATOM     33  C   UNL     1      47.098  14.891  21.698  0.00  0.00    -0.122 C 
ATOM     40  C   UNL     1      48.006  13.702  21.870  0.00  0.00    +0.072 C 
BRANCH  33  34
ATOM     34  C   UNL     1      47.634  16.285  21.906  0.00  0.00    +0.058 C 
BRANCH  34  35
ATOM     35  C   UNL     1      48.826  16.516  20.974  0.00  0.00    +0.054 C 
BRANCH  35  36
ATOM     36  C   UNL     1      48.354  16.505  19.543  0.00  0.00    -0.062 C 
ATOM     37  C   UNL     1      48.314  17.620  18.857  0.00  0.00    -0.132 C 
ATOM     38  C   UNL     1      47.871  17.604  17.417  0.00  0.00    +0.071 C 
ATOM     39  C   UNL     1      48.713  18.919  19.508  0.00  0.00    +0.072 C 
ENDBRANCH  35  36
ENDBRANCH  34  35
ENDBRANCH  33  34
ENDBRANCH  31  32
ENDBRANCH  30  31
ENDBRANCH  29  30
TORSDOF 13
ENDMDL
MODEL 5
REMARK VINA RESULT:      -4.7      3.350      6.760
REMARK  Name = ZINC95485976
REMARK  18 active torsions:
REMARK  status: ('A' for Active; 'I' for Inactive)
REMARK    1  A    between atoms: C1_1  and  C2_2
REMARK    2  A    between atoms: C4_4  and  O9_51
REMARK    3  A    between atoms: C7_7  and  C8_8
REMARK    4  A    between atoms: C13_14  and  C23_28
REMARK    5  A    between atoms: C15_16  and  O4_27
REMARK    6  A    between atoms: C17_18  and  O3_26
REMARK    7  A    between atoms: C21_23  and  C22_24
REMARK    8  A    between atoms: C21_23  and  O2_25
REMARK    9  A    between atoms: C23_28  and  C24_29
REMARK   10  A    between atoms: C24_29  and  C25_30
REMARK   11  A    between atoms: C26_31  and  C27_32
REMARK   12  A    between atoms: C26_31  and  C28_33
REMARK   13  A    between atoms: C28_33  and  C29_34
REMARK   14  A    between atoms: C29_34  and  C30_35
REMARK   15  A    between atoms: C31_36  and  C32_37
REMARK   16  A    between atoms: C31_36  and  C33_38
REMARK   17  A    between atoms: C37_43  and  O8_50
REMARK   18  A    between atoms: C39_45  and  O7_49
REMARK                            x       y       z     vdW  Elec       q    Type
REMARK                         _______ _______ _______ _____ _____    ______ ____
ROOT
ATOM     24  C   UNL     1      49.819  17.500  19.533  0.00  0.00    +0.121 C 
ATOM     25  C   UNL     1      48.948  18.515  20.226  0.00  0.00    +0.013 A 
ATOM     26  C   UNL     1      47.672  18.168  20.543  0.00  0.00    -0.013 A 
ATOM     27  C   UNL     1      46.820  19.080  21.195  0.00  0.00    +0.016 A 
ATOM     28  C   UNL     1      45.501  18.726  21.524  0.00  0.00    +0.002 A 
ATOM     29  C   UNL     1      44.693  19.623  22.157  0.00  0.00    -0.037 A 
ATOM     41  C   UNL     1      45.149  20.894  22.486  0.00  0.00    -0.019 A 
ATOM     42  C   UNL     1      46.436  21.280  22.180  0.00  0.00    +0.148 A 
ATOM     45  C   UNL     1      47.294  20.373  21.527  0.00  0.00    -0.129 A 
ATOM     46  C   UNL     1      48.614  20.729  21.196  0.00  0.00    +0.212 A 
ATOM     49  C   UNL     1      49.431  19.800  20.546  0.00  0.00    -0.205 A 
ATOM     50  C   UNL     1      50.806  20.177  20.191  0.00  0.00    +0.406 C 
ATOM     51  C   UNL     1      51.743  19.079  19.733  0.00  0.00    +0.023 C 
ATOM     52  O   UNL     1      51.179  21.329  20.264  0.00  0.00    -0.436 OA
ATOM     53  C   UNL     1      50.956  18.177  18.773  0.00  0.00    +0.146 C 
ATOM     56  C   UNL     1      51.889  17.110  18.196  0.00  0.00    +0.027 C 
ENDROOT
BRANCH  24  23
ATOM      1  C   UNL     1      48.280  18.867  17.511  0.00  0.00    +0.127 C 
ATOM      2  C   UNL     1      48.241  17.362  17.593  0.00  0.00    -0.006 A 
ATOM      3  C   UNL     1      47.472  16.648  16.696  0.00  0.00    +0.011 A 
ATOM      4  C   UNL     1      47.426  15.258  16.760  0.00  0.00    +0.170 A 
ATOM      7  C   UNL     1      48.162  14.585  17.739  0.00  0.00    -0.159 A 
ATOM      8  C   UNL     1      48.943  15.319  18.651  0.00  0.00    -0.107 A 
ATOM      9  C   UNL     1      49.724  14.616  19.688  0.00  0.00    +0.446 C 
ATOM     10  C   UNL     1      49.682  13.141  19.766  0.00  0.00    -0.090 A 
ATOM     11  C   UNL     1      50.412  12.471  20.740  0.00  0.00    +0.051 A 
ATOM     12  C   UNL     1      50.369  11.080  20.808  0.00  0.00    +0.149 A 
ATOM     15  C   UNL     1      49.599  10.357  19.911  0.00  0.00    -0.004 A 
ATOM     16  C   UNL     1      48.864  11.012  18.932  0.00  0.00    +0.181 A 
ATOM     19  C   UNL     1      48.899  12.410  18.852  0.00  0.00    -0.158 A 
ATOM     20  O   UNL     1      50.399  15.249  20.476  0.00  0.00    -0.418 OA
ATOM     21  C   UNL     1      48.122  13.112  17.818  0.00  0.00    +0.431 C 
ATOM     22  O   UNL     1      47.446  12.480  17.029  0.00  0.00    -0.401 OA
ATOM     23  C   UNL     1      48.980  16.708  18.564  0.00  0.00    -0.028 A 
BRANCH   4   5
ATOM      5  O   UNL     1      46.669  14.561  15.876  0.00  0.00    -0.476 OA
ATOM      6  H   UNL     1      45.900  15.048  15.549  0.00  0.00    +0.400 HD
ENDBRANCH   4   5
BRANCH  12  13
ATOM     13  O   UNL     1      51.084  10.429  21.761  0.00  0.00    -0.489 OA
ATOM     14  H   UNL     1      52.013  10.695  21.804  0.00  0.00    +0.402 HD
ENDBRANCH  12  13
BRANCH  16  17
ATOM     17  O   UNL     1      48.113  10.300  18.056  0.00  0.00    -0.472 OA
ATOM     18  H   UNL     1      48.612   9.641  17.554  0.00  0.00    +0.402 HD
ENDBRANCH  16  17
ENDBRANCH  24  23
BRANCH  42  43
ATOM     43  O   UNL     1      46.873  22.524  22.503  0.00  0.00    -0.478 OA
ATOM     44  H   UNL     1      47.835  22.623  22.473  0.00  0.00    +0.389 HD
ENDBRANCH  42  43
BRANCH  46  47
ATOM     47  O   UNL     1      49.088  21.959  21.504  0.00  0.00    -0.458 OA
ATOM     48  H   UNL     1      48.399  22.623  21.642  0.00  0.00    +0.392 HD
ENDBRANCH  46  47
BRANCH  53  54
ATOM     54  O   UNL     1      50.416  18.964  17.711  0.00  0.00    -0.540 OA
ATOM     55  H   UNL     1      51.076  19.488  17.235  0.00  0.00    +0.370 HD
ENDBRANCH  53  54
BRANCH  29  30
ATOM     30  C   UNL     1      43.280  19.229  22.505  0.00  0.00    +0.073 C 
BRANCH  30  31
ATOM     31  C   UNL     1      42.830  18.085  21.594  0.00  0.00    +0.060 C 
BRANCH  31  32
ATOM     32  C   UNL     1      42.320  18.648  20.294  0.00  0.00    -0.057 C 
ATOM     33  C   UNL     1      41.187  19.305  20.264  0.00  0.00    -0.122 C 
ATOM     40  C   UNL     1      40.331  19.387  21.501  0.00  0.00    +0.072 C 
BRANCH  33  34
ATOM     34  C   UNL     1      40.740  19.981  18.993  0.00  0.00    +0.058 C 
BRANCH  34  35
ATOM     35  C   UNL     1      41.954  20.585  18.283  0.00  0.00    +0.054 C 
BRANCH  35  36
ATOM     36  C   UNL     1      42.429  21.795  19.045  0.00  0.00    -0.062 C 
ATOM     37  C   UNL     1      43.705  21.950  19.300  0.00  0.00    -0.132 C 
ATOM     38  C   UNL     1      44.183  23.175  20.035  0.00  0.00    +0.071 C 
ATOM     39  C   UNL     1      44.693  20.902  18.857  0.00  0.00    +0.072 C 
ENDBRANCH  35  36
ENDBRANCH  34  35
ENDBRANCH  33  34
ENDBRANCH  31  32
ENDBRANCH  30  31
ENDBRANCH  29  30
TORSDOF 13
ENDMDL
MODEL 6
REMARK VINA RESULT:      -4.5      2.690      6.963
REMARK  Name = ZINC95485976
REMARK  18 active torsions:
REMARK  status: ('A' for Active; 'I' for Inactive)
REMARK    1  A    between atoms: C1_1  and  C2_2
REMARK    2  A    between atoms: C4_4  and  O9_51
REMARK    3  A    between atoms: C7_7  and  C8_8
REMARK    4  A    between atoms: C13_14  and  C23_28
REMARK    5  A    between atoms: C15_16  and  O4_27
REMARK    6  A    between atoms: C17_18  and  O3_26
REMARK    7  A    between atoms: C21_23  and  C22_24
REMARK    8  A    between atoms: C21_23  and  O2_25
REMARK    9  A    between atoms: C23_28  and  C24_29
REMARK   10  A    between atoms: C24_29  and  C25_30
REMARK   11  A    between atoms: C26_31  and  C27_32
REMARK   12  A    between atoms: C26_31  and  C28_33
REMARK   13  A    between atoms: C28_33  and  C29_34
REMARK   14  A    between atoms: C29_34  and  C30_35
REMARK   15  A    between atoms: C31_36  and  C32_37
REMARK   16  A    between atoms: C31_36  and  C33_38
REMARK   17  A    between atoms: C37_43  and  O8_50
REMARK   18  A    between atoms: C39_45  and  O7_49
REMARK                            x       y       z     vdW  Elec       q    Type
REMARK                         _______ _______ _______ _____ _____    ______ ____
ROOT
ATOM     24  C   UNL     1      50.457  14.568  16.189  0.00  0.00    +0.121 C 
ATOM     25  C   UNL     1      49.111  13.992  16.547  0.00  0.00    +0.013 A 
ATOM     26  C   UNL     1      48.469  14.476  17.643  0.00  0.00    -0.013 A 
ATOM     27  C   UNL     1      47.207  13.975  18.017  0.00  0.00    +0.016 A 
ATOM     28  C   UNL     1      46.540  14.471  19.148  0.00  0.00    +0.002 A 
ATOM     29  C   UNL     1      45.319  13.973  19.492  0.00  0.00    -0.037 A 
ATOM     41  C   UNL     1      44.713  12.973  18.741  0.00  0.00    -0.019 A 
ATOM     42  C   UNL     1      45.335  12.458  17.624  0.00  0.00    +0.148 A 
ATOM     45  C   UNL     1      46.598  12.955  17.244  0.00  0.00    -0.129 A 
ATOM     46  C   UNL     1      47.267  12.456  16.112  0.00  0.00    +0.212 A 
ATOM     49  C   UNL     1      48.519  12.975  15.772  0.00  0.00    -0.205 A 
ATOM     50  C   UNL     1      49.221  12.445  14.595  0.00  0.00    +0.406 C 
ATOM     51  C   UNL     1      50.438  13.197  14.101  0.00  0.00    +0.023 C 
ATOM     52  O   UNL     1      48.837  11.438  14.037  0.00  0.00    -0.436 OA
ATOM     53  C   UNL     1      51.262  13.594  15.333  0.00  0.00    +0.146 C 
ATOM     56  C   UNL     1      52.561  14.266  14.882  0.00  0.00    +0.027 C 
ENDROOT
BRANCH  24  23
ATOM      1  C   UNL     1      51.167  12.417  17.976  0.00  0.00    +0.127 C 
ATOM      2  C   UNL     1      51.562  13.832  18.312  0.00  0.00    -0.006 A 
ATOM      3  C   UNL     1      52.267  14.089  19.471  0.00  0.00    +0.011 A 
ATOM      4  C   UNL     1      52.639  15.391  19.794  0.00  0.00    +0.170 A 
ATOM      7  C   UNL     1      52.295  16.442  18.940  0.00  0.00    -0.159 A 
ATOM      8  C   UNL     1      51.576  16.174  17.760  0.00  0.00    -0.107 A 
ATOM      9  C   UNL     1      51.208  17.278  16.852  0.00  0.00    +0.446 C 
ATOM     10  C   UNL     1      51.597  18.665  17.185  0.00  0.00    -0.090 A 
ATOM     11  C   UNL     1      51.254  19.710  16.337  0.00  0.00    +0.051 A 
ATOM     12  C   UNL     1      51.623  21.015  16.656  0.00  0.00    +0.149 A 
ATOM     15  C   UNL     1      52.330  21.279  17.818  0.00  0.00    -0.004 A 
ATOM     16  C   UNL     1      52.680  20.245  18.676  0.00  0.00    +0.181 A 
ATOM     19  C   UNL     1      52.315  18.929  18.367  0.00  0.00    -0.158 A 
ATOM     20  O   UNL     1      50.588  17.048  15.832  0.00  0.00    -0.418 OA
ATOM     21  C   UNL     1      52.682  17.827  19.271  0.00  0.00    +0.431 C 
ATOM     22  O   UNL     1      53.302  18.056  20.291  0.00  0.00    -0.401 OA
ATOM     23  C   UNL     1      51.220  14.864  17.453  0.00  0.00    -0.028 A 
BRANCH   4   5
ATOM      5  O   UNL     1      53.330  15.638  20.935  0.00  0.00    -0.476 OA
ATOM      6  H   UNL     1      54.103  16.206  20.810  0.00  0.00    +0.400 HD
ENDBRANCH   4   5
BRANCH  12  13
ATOM     13  O   UNL     1      51.287  22.033  15.825  0.00  0.00    -0.489 OA
ATOM     14  H   UNL     1      50.626  21.796  15.159  0.00  0.00    +0.402 HD
ENDBRANCH  12  13
BRANCH  16  17
ATOM     17  O   UNL     1      53.373  20.509  19.812  0.00  0.00    -0.472 OA
ATOM     18  H   UNL     1      53.793  21.380  19.824  0.00  0.00    +0.402 HD
ENDBRANCH  16  17
ENDBRANCH  24  23
BRANCH  42  43
ATOM     43  O   UNL     1      44.738  11.480  16.897  0.00  0.00    -0.478 OA
ATOM     44  H   UNL     1      45.131  11.344  16.024  0.00  0.00    +0.389 HD
ENDBRANCH  42  43
BRANCH  46  47
ATOM     47  O   UNL     1      46.702  11.483  15.359  0.00  0.00    -0.458 OA
ATOM     48  H   UNL     1      45.754  11.599  15.212  0.00  0.00    +0.392 HD
ENDBRANCH  46  47
BRANCH  53  54
ATOM     54  O   UNL     1      51.568  12.428  16.100  0.00  0.00    -0.540 OA
ATOM     55  H   UNL     1      51.605  12.584  17.054  0.00  0.00    +0.370 HD
ENDBRANCH  53  54
BRANCH  29  30
ATOM     30  C   UNL     1      44.614  14.517  20.709  0.00  0.00    +0.073 C 
BRANCH  30  31
ATOM     31  C   UNL     1      45.215  15.873  21.084  0.00  0.00    +0.060 C 
BRANCH  31  32
ATOM     32  C   UNL     1      44.743  16.918  20.107  0.00  0.00    -0.057 C 
ATOM     33  C   UNL     1      44.762  18.184  20.442  0.00  0.00    -0.122 C 
ATOM     40  C   UNL     1      45.132  18.586  21.846  0.00  0.00    +0.072 C 
BRANCH  33  34
ATOM     34  C   UNL     1      44.416  19.239  19.423  0.00  0.00    +0.058 C 
BRANCH  34  35
ATOM     35  C   UNL     1      45.488  19.266  18.332  0.00  0.00    +0.054 C 
BRANCH  35  36
ATOM     36  C   UNL     1      46.626  20.152  18.769  0.00  0.00    -0.062 C 
ATOM     37  C   UNL     1      47.828  19.652  18.914  0.00  0.00    -0.132 C 
ATOM     38  C   UNL     1      48.972  20.544  19.322  0.00  0.00    +0.071 C 
ATOM     39  C   UNL     1      48.067  18.183  18.672  0.00  0.00    +0.072 C 
ENDBRANCH  35  36
ENDBRANCH  34  35
ENDBRANCH  33  34
ENDBRANCH  31  32
ENDBRANCH  30  31
ENDBRANCH  29  30
TORSDOF 13
ENDMDL
MODEL 7
REMARK VINA RESULT:      -4.3      3.380      7.717
REMARK  Name = ZINC95485976
REMARK  18 active torsions:
REMARK  status: ('A' for Active; 'I' for Inactive)
REMARK    1  A    between atoms: C1_1  and  C2_2
REMARK    2  A    between atoms: C4_4  and  O9_51
REMARK    3  A    between atoms: C7_7  and  C8_8
REMARK    4  A    between atoms: C13_14  and  C23_28
REMARK    5  A    between atoms: C15_16  and  O4_27
REMARK    6  A    between atoms: C17_18  and  O3_26
REMARK    7  A    between atoms: C21_23  and  C22_24
REMARK    8  A    between atoms: C21_23  and  O2_25
REMARK    9  A    between atoms: C23_28  and  C24_29
REMARK   10  A    between atoms: C24_29  and  C25_30
REMARK   11  A    between atoms: C26_31  and  C27_32
REMARK   12  A    between atoms: C26_31  and  C28_33
REMARK   13  A    between atoms: C28_33  and  C29_34
REMARK   14  A    between atoms: C29_34  and  C30_35
REMARK   15  A    between atoms: C31_36  and  C32_37
REMARK   16  A    between atoms: C31_36  and  C33_38
REMARK   17  A    between atoms: C37_43  and  O8_50
REMARK   18  A    between atoms: C39_45  and  O7_49
REMARK                            x       y       z     vdW  Elec       q    Type
REMARK                         _______ _______ _______ _____ _____    ______ ____
ROOT
ATOM     24  C   UNL     1      50.478  14.604  16.134  0.00  0.00    +0.121 C 
ATOM     25  C   UNL     1      49.136  14.014  16.481  0.00  0.00    +0.013 A 
ATOM     26  C   UNL     1      48.488  14.477  17.583  0.00  0.00    -0.013 A 
ATOM     27  C   UNL     1      47.229  13.963  17.946  0.00  0.00    +0.016 A 
ATOM     28  C   UNL     1      46.556  14.437  19.084  0.00  0.00    +0.002 A 
ATOM     29  C   UNL     1      45.338  13.926  19.417  0.00  0.00    -0.037 A 
ATOM     41  C   UNL     1      44.739  12.934  18.649  0.00  0.00    -0.019 A 
ATOM     42  C   UNL     1      45.367  12.440  17.526  0.00  0.00    +0.148 A 
ATOM     45  C   UNL     1      46.628  12.951  17.157  0.00  0.00    -0.129 A 
ATOM     46  C   UNL     1      47.302  12.474  16.018  0.00  0.00    +0.212 A 
ATOM     49  C   UNL     1      48.551  13.006  15.689  0.00  0.00    -0.205 A 
ATOM     50  C   UNL     1      49.259  12.498  14.506  0.00  0.00    +0.406 C 
ATOM     51  C   UNL     1      50.473  13.266  14.026  0.00  0.00    +0.023 C 
ATOM     52  O   UNL     1      48.883  11.498  13.931  0.00  0.00    -0.436 OA
ATOM     53  C   UNL     1      51.292  13.649  15.266  0.00  0.00    +0.146 C 
ATOM     56  C   UNL     1      52.587  14.335  14.828  0.00  0.00    +0.027 C 
ENDROOT
BRANCH  24  23
ATOM      1  C   UNL     1      51.195  12.430  17.891  0.00  0.00    +0.127 C 
ATOM      2  C   UNL     1      51.583  13.842  18.249  0.00  0.00    -0.006 A 
ATOM      3  C   UNL     1      52.283  14.086  19.414  0.00  0.00    +0.011 A 
ATOM      4  C   UNL     1      52.648  15.384  19.757  0.00  0.00    +0.170 A 
ATOM      7  C   UNL     1      52.301  16.446  18.918  0.00  0.00    -0.159 A 
ATOM      8  C   UNL     1      51.586  16.192  17.732  0.00  0.00    -0.107 A 
ATOM      9  C   UNL     1      51.215  17.307  16.839  0.00  0.00    +0.446 C 
ATOM     10  C   UNL     1      51.596  18.691  17.194  0.00  0.00    -0.090 A 
ATOM     11  C   UNL     1      51.250  19.747  16.361  0.00  0.00    +0.051 A 
ATOM     12  C   UNL     1      51.613  21.049  16.700  0.00  0.00    +0.149 A 
ATOM     15  C   UNL     1      52.315  21.299  17.868  0.00  0.00    -0.004 A 
ATOM     16  C   UNL     1      52.668  20.255  18.711  0.00  0.00    +0.181 A 
ATOM     19  C   UNL     1      52.311  18.941  18.381  0.00  0.00    -0.158 A 
ATOM     20  O   UNL     1      50.599  17.089  15.815  0.00  0.00    -0.418 OA
ATOM     21  C   UNL     1      52.680  17.827  19.270  0.00  0.00    +0.431 C 
ATOM     22  O   UNL     1      53.297  18.045  20.295  0.00  0.00    -0.401 OA
ATOM     23  C   UNL     1      51.238  14.885  17.405  0.00  0.00    -0.028 A 
BRANCH   4   5
ATOM      5  O   UNL     1      53.336  15.617  20.903  0.00  0.00    -0.476 OA
ATOM      6  H   UNL     1      54.077  15.013  21.045  0.00  0.00    +0.400 HD
ENDBRANCH   4   5
BRANCH  12  13
ATOM     13  O   UNL     1      51.273  22.078  15.883  0.00  0.00    -0.489 OA
ATOM     14  H   UNL     1      51.404  22.952  16.276  0.00  0.00    +0.402 HD
ENDBRANCH  12  13
BRANCH  16  17
ATOM     17  O   UNL     1      53.357  20.504  19.852  0.00  0.00    -0.472 OA
ATOM     18  H   UNL     1      53.130  19.917  20.586  0.00  0.00    +0.402 HD
ENDBRANCH  16  17
ENDBRANCH  24  23
BRANCH  42  43
ATOM     43  O   UNL     1      44.777  11.471  16.782  0.00  0.00    -0.478 OA
ATOM     44  H   UNL     1      44.512  11.760  15.898  0.00  0.00    +0.389 HD
ENDBRANCH  42  43
BRANCH  46  47
ATOM     47  O   UNL     1      46.745  11.509  15.249  0.00  0.00    -0.458 OA
ATOM     48  H   UNL     1      47.209  11.354  14.415  0.00  0.00    +0.392 HD
ENDBRANCH  46  47
BRANCH  53  54
ATOM     54  O   UNL     1      51.604  12.473  16.015  0.00  0.00    -0.540 OA
ATOM     55  H   UNL     1      50.908  11.801  15.998  0.00  0.00    +0.370 HD
ENDBRANCH  53  54
BRANCH  29  30
ATOM     30  C   UNL     1      44.626  14.447  20.641  0.00  0.00    +0.073 C 
BRANCH  30  31
ATOM     31  C   UNL     1      45.273  15.759  21.087  0.00  0.00    +0.060 C 
BRANCH  31  32
ATOM     32  C   UNL     1      44.198  16.761  21.420  0.00  0.00    -0.057 C 
ATOM     33  C   UNL     1      43.977  17.775  20.621  0.00  0.00    -0.122 C 
ATOM     40  C   UNL     1      44.881  18.014  19.439  0.00  0.00    +0.072 C 
BRANCH  33  34
ATOM     34  C   UNL     1      42.818  18.703  20.883  0.00  0.00    +0.058 C 
BRANCH  34  35
ATOM     35  C   UNL     1      42.759  19.766  19.784  0.00  0.00    +0.054 C 
BRANCH  35  36
ATOM     36  C   UNL     1      41.330  19.948  19.339  0.00  0.00    -0.062 C 
ATOM     37  C   UNL     1      40.917  21.119  18.921  0.00  0.00    -0.132 C 
ATOM     38  C   UNL     1      39.497  21.293  18.447  0.00  0.00    +0.071 C 
ATOM     39  C   UNL     1      41.864  22.292  18.913  0.00  0.00    +0.072 C 
ENDBRANCH  35  36
ENDBRANCH  34  35
ENDBRANCH  33  34
ENDBRANCH  31  32
ENDBRANCH  30  31
ENDBRANCH  29  30
TORSDOF 13
ENDMDL
MODEL 8
REMARK VINA RESULT:      -4.2      2.577      6.438
REMARK  Name = ZINC95485976
REMARK  18 active torsions:
REMARK  status: ('A' for Active; 'I' for Inactive)
REMARK    1  A    between atoms: C1_1  and  C2_2
REMARK    2  A    between atoms: C4_4  and  O9_51
REMARK    3  A    between atoms: C7_7  and  C8_8
REMARK    4  A    between atoms: C13_14  and  C23_28
REMARK    5  A    between atoms: C15_16  and  O4_27
REMARK    6  A    between atoms: C17_18  and  O3_26
REMARK    7  A    between atoms: C21_23  and  C22_24
REMARK    8  A    between atoms: C21_23  and  O2_25
REMARK    9  A    between atoms: C23_28  and  C24_29
REMARK   10  A    between atoms: C24_29  and  C25_30
REMARK   11  A    between atoms: C26_31  and  C27_32
REMARK   12  A    between atoms: C26_31  and  C28_33
REMARK   13  A    between atoms: C28_33  and  C29_34
REMARK   14  A    between atoms: C29_34  and  C30_35
REMARK   15  A    between atoms: C31_36  and  C32_37
REMARK   16  A    between atoms: C31_36  and  C33_38
REMARK   17  A    between atoms: C37_43  and  O8_50
REMARK   18  A    between atoms: C39_45  and  O7_49
REMARK                            x       y       z     vdW  Elec       q    Type
REMARK                         _______ _______ _______ _____ _____    ______ ____
ROOT
ATOM     24  C   UNL     1      50.757  17.729  18.972  0.00  0.00    +0.121 C 
ATOM     25  C   UNL     1      49.406  18.098  19.527  0.00  0.00    +0.013 A 
ATOM     26  C   UNL     1      48.670  17.132  20.139  0.00  0.00    -0.013 A 
ATOM     27  C   UNL     1      47.404  17.426  20.679  0.00  0.00    +0.016 A 
ATOM     28  C   UNL     1      46.640  16.432  21.311  0.00  0.00    +0.002 A 
ATOM     29  C   UNL     1      45.417  16.738  21.828  0.00  0.00    -0.037 A 
ATOM     41  C   UNL     1      44.901  18.027  21.742  0.00  0.00    -0.019 A 
ATOM     42  C   UNL     1      45.619  19.031  21.128  0.00  0.00    +0.148 A 
ATOM     45  C   UNL     1      46.888  18.743  20.586  0.00  0.00    -0.129 A 
ATOM     46  C   UNL     1      47.652  19.739  19.951  0.00  0.00    +0.212 A 
ATOM     49  C   UNL     1      48.903  19.411  19.424  0.00  0.00    -0.205 A 
ATOM     50  C   UNL     1      49.695  20.449  18.751  0.00  0.00    +0.406 C 
ATOM     51  C   UNL     1      51.141  20.137  18.428  0.00  0.00    +0.023 C 
ATOM     52  O   UNL     1      49.207  21.523  18.465  0.00  0.00    -0.436 OA
ATOM     53  C   UNL     1      51.188  18.704  17.880  0.00  0.00    +0.146 C 
ATOM     56  C   UNL     1      52.615  18.376  17.437  0.00  0.00    +0.027 C 
ENDROOT
BRANCH  24  23
ATOM      1  C   UNL     1      48.609  17.011  17.185  0.00  0.00    +0.127 C 
ATOM      2  C   UNL     1      49.662  15.993  17.538  0.00  0.00    -0.006 A 
ATOM      3  C   UNL     1      49.595  14.723  16.999  0.00  0.00    +0.011 A 
ATOM      4  C   UNL     1      50.561  13.772  17.316  0.00  0.00    +0.170 A 
ATOM      7  C   UNL     1      51.602  14.106  18.186  0.00  0.00    -0.159 A 
ATOM      8  C   UNL     1      51.665  15.402  18.732  0.00  0.00    -0.107 A 
ATOM      9  C   UNL     1      52.762  15.763  19.651  0.00  0.00    +0.446 C 
ATOM     10  C   UNL     1      53.793  14.762  19.996  0.00  0.00    -0.090 A 
ATOM     11  C   UNL     1      54.828  15.092  20.861  0.00  0.00    +0.051 A 
ATOM     12  C   UNL     1      55.797  14.144  21.182  0.00  0.00    +0.149 A 
ATOM     15  C   UNL     1      55.735  12.868  20.645  0.00  0.00    -0.004 A 
ATOM     16  C   UNL     1      54.707  12.522  19.779  0.00  0.00    +0.181 A 
ATOM     19  C   UNL     1      53.726  13.466  19.448  0.00  0.00    -0.158 A 
ATOM     20  O   UNL     1      52.819  16.882  20.124  0.00  0.00    -0.418 OA
ATOM     21  C   UNL     1      52.632  13.108  18.531  0.00  0.00    +0.431 C 
ATOM     22  O   UNL     1      52.576  11.989  18.057  0.00  0.00    -0.401 OA
ATOM     23  C   UNL     1      50.693  16.339  18.396  0.00  0.00    -0.028 A 
BRANCH   4   5
ATOM      5  O   UNL     1      50.489  12.527  16.784  0.00  0.00    -0.476 OA
ATOM      6  H   UNL     1      50.237  11.843  17.419  0.00  0.00    +0.400 HD
ENDBRANCH   4   5
BRANCH  12  13
ATOM     13  O   UNL     1      56.807  14.471  22.027  0.00  0.00    -0.489 OA
ATOM     14  H   UNL     1      56.522  14.628  22.938  0.00  0.00    +0.402 HD
ENDBRANCH  12  13
BRANCH  16  17
ATOM     17  O   UNL     1      54.650  11.273  19.254  0.00  0.00    -0.472 OA
ATOM     18  H   UNL     1      53.752  10.931  19.147  0.00  0.00    +0.402 HD
ENDBRANCH  16  17
ENDBRANCH  24  23
BRANCH  42  43
ATOM     43  O   UNL     1      45.109  20.286  21.047  0.00  0.00    -0.478 OA
ATOM     44  H   UNL     1      45.770  20.968  20.862  0.00  0.00    +0.389 HD
ENDBRANCH  42  43
BRANCH  46  47
ATOM     47  O   UNL     1      47.178  21.004  19.852  0.00  0.00    -0.458 OA
ATOM     48  H   UNL     1      47.486  21.595  20.552  0.00  0.00    +0.392 HD
ENDBRANCH  46  47
BRANCH  53  54
ATOM     54  O   UNL     1      50.303  18.590  16.764  0.00  0.00    -0.540 OA
ATOM     55  H   UNL     1      50.553  17.901  16.133  0.00  0.00    +0.370 HD
ENDBRANCH  53  54
BRANCH  29  30
ATOM     30  C   UNL     1      44.608  15.661  22.506  0.00  0.00    +0.073 C 
BRANCH  30  31
ATOM     31  C   UNL     1      44.568  14.418  21.615  0.00  0.00    +0.060 C 
BRANCH  31  32
ATOM     32  C   UNL     1      45.736  13.525  21.946  0.00  0.00    -0.057 C 
ATOM     33  C   UNL     1      46.560  13.146  21.001  0.00  0.00    -0.122 C 
ATOM     40  C   UNL     1      46.270  13.494  19.565  0.00  0.00    +0.072 C 
BRANCH  33  34
ATOM     34  C   UNL     1      47.800  12.363  21.351  0.00  0.00    +0.058 C 
BRANCH  34  35
ATOM     35  C   UNL     1      48.990  12.914  20.563  0.00  0.00    +0.054 C 
BRANCH  35  36
ATOM     36  C   UNL     1      50.266  12.322  21.103  0.00  0.00    -0.062 C 
ATOM     37  C   UNL     1      51.004  13.007  21.941  0.00  0.00    -0.132 C 
ATOM     38  C   UNL     1      52.265  12.403  22.504  0.00  0.00    +0.071 C 
ATOM     39  C   UNL     1      50.591  14.400  22.342  0.00  0.00    +0.072 C 
ENDBRANCH  35  36
ENDBRANCH  34  35
ENDBRANCH  33  34
ENDBRANCH  31  32
ENDBRANCH  30  31
ENDBRANCH  29  30
TORSDOF 13
ENDMDL
MODEL 9
REMARK VINA RESULT:      -3.8      2.624      6.368
REMARK  Name = ZINC95485976
REMARK  18 active torsions:
REMARK  status: ('A' for Active; 'I' for Inactive)
REMARK    1  A    between atoms: C1_1  and  C2_2
REMARK    2  A    between atoms: C4_4  and  O9_51
REMARK    3  A    between atoms: C7_7  and  C8_8
REMARK    4  A    between atoms: C13_14  and  C23_28
REMARK    5  A    between atoms: C15_16  and  O4_27
REMARK    6  A    between atoms: C17_18  and  O3_26
REMARK    7  A    between atoms: C21_23  and  C22_24
REMARK    8  A    between atoms: C21_23  and  O2_25
REMARK    9  A    between atoms: C23_28  and  C24_29
REMARK   10  A    between atoms: C24_29  and  C25_30
REMARK   11  A    between atoms: C26_31  and  C27_32
REMARK   12  A    between atoms: C26_31  and  C28_33
REMARK   13  A    between atoms: C28_33  and  C29_34
REMARK   14  A    between atoms: C29_34  and  C30_35
REMARK   15  A    between atoms: C31_36  and  C32_37
REMARK   16  A    between atoms: C31_36  and  C33_38
REMARK   17  A    between atoms: C37_43  and  O8_50
REMARK   18  A    between atoms: C39_45  and  O7_49
REMARK                            x       y       z     vdW  Elec       q    Type
REMARK                         _______ _______ _______ _____ _____    ______ ____
ROOT
ATOM     24  C   UNL     1      49.845  13.068  16.307  0.00  0.00    +0.121 C 
ATOM     25  C   UNL     1      48.485  12.995  16.950  0.00  0.00    +0.013 A 
ATOM     26  C   UNL     1      48.362  13.368  18.252  0.00  0.00    -0.013 A 
ATOM     27  C   UNL     1      47.111  13.324  18.898  0.00  0.00    +0.016 A 
ATOM     28  C   UNL     1      46.979  13.706  20.242  0.00  0.00    +0.002 A 
ATOM     29  C   UNL     1      45.759  13.657  20.848  0.00  0.00    -0.037 A 
ATOM     41  C   UNL     1      44.630  13.231  20.158  0.00  0.00    -0.019 A 
ATOM     42  C   UNL     1      44.718  12.845  18.838  0.00  0.00    +0.148 A 
ATOM     45  C   UNL     1      45.967  12.887  18.186  0.00  0.00    -0.129 A 
ATOM     46  C   UNL     1      46.098  12.501  16.839  0.00  0.00    +0.212 A 
ATOM     49  C   UNL     1      47.355  12.555  16.231  0.00  0.00    -0.205 A 
ATOM     50  C   UNL     1      47.493  12.142  14.828  0.00  0.00    +0.406 C 
ATOM     51  C   UNL     1      48.796  12.457  14.124  0.00  0.00    +0.023 C 
ATOM     52  O   UNL     1      46.592  11.567  14.252  0.00  0.00    -0.436 OA
ATOM     53  C   UNL     1      49.934  12.135  15.102  0.00  0.00    +0.146 C 
ATOM     56  C   UNL     1      51.279  12.336  14.401  0.00  0.00    +0.027 C 
ENDROOT
BRANCH  24  23
ATOM      1  C   UNL     1      50.270  10.280  16.921  0.00  0.00    +0.127 C 
ATOM      2  C   UNL     1      51.096  11.335  17.612  0.00  0.00    -0.006 A 
ATOM      3  C   UNL     1      52.055  10.959  18.531  0.00  0.00    +0.011 A 
ATOM      4  C   UNL     1      52.826  11.921  19.177  0.00  0.00    +0.170 A 
ATOM      7  C   UNL     1      52.625  13.275  18.893  0.00  0.00    -0.159 A 
ATOM      8  C   UNL     1      51.646  13.651  17.955  0.00  0.00    -0.107 A 
ATOM      9  C   UNL     1      51.427  15.079  17.649  0.00  0.00    +0.446 C 
ATOM     10  C   UNL     1      52.238  16.110  18.329  0.00  0.00    -0.090 A 
ATOM     11  C   UNL     1      52.038  17.455  18.048  0.00  0.00    +0.051 A 
ATOM     12  C   UNL     1      52.807  18.423  18.693  0.00  0.00    +0.149 A 
ATOM     15  C   UNL     1      53.770  18.052  19.616  0.00  0.00    -0.004 A 
ATOM     16  C   UNL     1      53.983  16.711  19.908  0.00  0.00    +0.181 A 
ATOM     19  C   UNL     1      53.217  15.728  19.267  0.00  0.00    -0.158 A 
ATOM     20  O   UNL     1      50.581  15.406  16.839  0.00  0.00    -0.418 OA
ATOM     21  C   UNL     1      53.434  14.305  19.571  0.00  0.00    +0.431 C 
ATOM     22  O   UNL     1      54.280  13.977  20.381  0.00  0.00    -0.401 OA
ATOM     23  C   UNL     1      50.891  12.672  17.316  0.00  0.00    -0.028 A 
BRANCH   4   5
ATOM      5  O   UNL     1      53.767  11.546  20.079  0.00  0.00    -0.476 OA
ATOM      6  H   UNL     1      53.529  10.761  20.591  0.00  0.00    +0.400 HD
ENDBRANCH   4   5
BRANCH  12  13
ATOM     13  O   UNL     1      52.609  19.736  18.415  0.00  0.00    -0.489 OA
ATOM     14  H   UNL     1      52.831  20.331  19.145  0.00  0.00    +0.402 HD
ENDBRANCH  12  13
BRANCH  16  17
ATOM     17  O   UNL     1      54.928  16.353  20.812  0.00  0.00    -0.472 OA
ATOM     18  H   UNL     1      55.069  17.003  21.513  0.00  0.00    +0.402 HD
ENDBRANCH  16  17
ENDBRANCH  24  23
BRANCH  42  43
ATOM     43  O   UNL     1      43.612  12.428  18.171  0.00  0.00    -0.478 OA
ATOM     44  H   UNL     1      42.803  12.896  18.420  0.00  0.00    +0.389 HD
ENDBRANCH  42  43
BRANCH  46  47
ATOM     47  O   UNL     1      45.018  12.082  16.140  0.00  0.00    -0.458 OA
ATOM     48  H   UNL     1      44.400  11.546  16.654  0.00  0.00    +0.392 HD
ENDBRANCH  46  47
BRANCH  53  54
ATOM     54  O   UNL     1      49.820  10.780  15.539  0.00  0.00    -0.540 OA
ATOM     55  H   UNL     1      50.663  10.376  15.789  0.00  0.00    +0.370 HD
ENDBRANCH  53  54
BRANCH  29  30
ATOM     30  C   UNL     1      45.633  14.073  22.292  0.00  0.00    +0.073 C 
BRANCH  30  31
ATOM     31  C   UNL     1      44.649  15.239  22.403  0.00  0.00    +0.060 C 
BRANCH  31  32
ATOM     32  C   UNL     1      45.414  16.533  22.505  0.00  0.00    -0.057 C 
ATOM     33  C   UNL     1      45.370  17.400  21.524  0.00  0.00    -0.122 C 
ATOM     40  C   UNL     1      44.663  17.050  20.241  0.00  0.00    +0.072 C 
BRANCH  33  34
ATOM     34  C   UNL     1      46.027  18.748  21.679  0.00  0.00    +0.058 C 
BRANCH  34  35
ATOM     35  C   UNL     1      47.268  18.816  20.787  0.00  0.00    +0.054 C 
BRANCH  35  36
ATOM     36  C   UNL     1      48.298  17.835  21.285  0.00  0.00    -0.062 C 
ATOM     37  C   UNL     1      48.835  16.971  20.459  0.00  0.00    -0.132 C 
ATOM     38  C   UNL     1      49.887  16.010  20.951  0.00  0.00    +0.071 C 
ATOM     39  C   UNL     1      48.399  16.938  19.016  0.00  0.00    +0.072 C 
ENDBRANCH  35  36
ENDBRANCH  34  35
ENDBRANCH  33  34
ENDBRANCH  31  32
ENDBRANCH  30  31
ENDBRANCH  29  30
TORSDOF 13
ENDMDL
