MODEL 1
REMARK VINA RESULT:      -7.8      0.000      0.000
REMARK  Name = ZINC95486212
REMARK  12 active torsions:
REMARK  status: ('A' for Active; 'I' for Inactive)
REMARK    1  A    between atoms: C1_1  and  N1_2
REMARK    2  A    between atoms: C6_8  and  O6_46
REMARK    3  A    between atoms: C7_9  and  O5_45
REMARK    4  A    between atoms: C15_18  and  O4_43
REMARK    5  A    between atoms: C16_19  and  O3_41
REMARK    6  A    between atoms: C17_20  and  O1_21
REMARK    7  A    between atoms: O1_21  and  C18_22
REMARK    8  A    between atoms: C24_28  and  C27_33
REMARK    9  A    between atoms: C27_33  and  C28_34
REMARK   10  A    between atoms: C31_37  and  O2_40
REMARK   11  A    between atoms: O3_41  and  C34_42
REMARK   12  A    between atoms: O4_43  and  C35_44
REMARK                            x       y       z     vdW  Elec       q    Type
REMARK                         _______ _______ _______ _____ _____    ______ ____
ROOT
ATOM      1  C   UNL     1      51.695  12.970  19.016  0.00  0.00    +0.333 C 
ATOM      2  N   UNL     1      51.547  12.406  17.668  0.00  0.00    -0.372 N 
ATOM      3  H   UNL     1      52.194  11.641  17.550  0.00  0.00    +0.434 HD
ATOM      4  C   UNL     1      50.178  11.916  17.493  0.00  0.00    +0.239 C 
ATOM      5  C   UNL     1      50.097  11.095  16.206  0.00  0.00    +0.143 C 
ATOM      6  C   UNL     1      50.674  11.889  15.060  0.00  0.00    -0.074 A 
ATOM      7  C   UNL     1      50.373  11.499  13.764  0.00  0.00    +0.027 A 
ATOM      8  C   UNL     1      50.885  12.200  12.687  0.00  0.00    +0.113 A 
ATOM     11  C   UNL     1      51.705  13.301  12.911  0.00  0.00    +0.101 A 
ATOM     14  C   UNL     1      52.001  13.687  14.206  0.00  0.00    +0.042 A 
ATOM     15  C   UNL     1      51.485  12.981  15.284  0.00  0.00    -0.114 A 
ATOM     16  C   UNL     1      49.192  13.049  17.425  0.00  0.00    -0.068 A 
ATOM     17  C   UNL     1      47.846  12.766  17.608  0.00  0.00    -0.029 A 
ATOM     18  C   UNL     1      46.900  13.776  17.553  0.00  0.00    +0.140 A 
ATOM     21  C   UNL     1      47.300  15.085  17.313  0.00  0.00    +0.087 A 
ATOM     24  C   UNL     1      48.641  15.369  17.177  0.00  0.00    +0.121 A 
ATOM     46  C   UNL     1      49.586  14.351  17.219  0.00  0.00    -0.118 A 
ATOM     47  C   UNL     1      51.038  14.702  17.017  0.00  0.00    +0.144 C 
ATOM     48  C   UNL     1      51.830  13.441  16.673  0.00  0.00    +0.238 C 
ENDROOT
BRANCH   8   9
ATOM      9  O   UNL     1      50.588  11.815  11.416  0.00  0.00    -0.481 OA
ATOM     10  H   UNL     1      49.815  11.238  11.351  0.00  0.00    +0.399 HD
ENDBRANCH   8   9
BRANCH  11  12
ATOM     12  O   UNL     1      52.216  13.997  11.859  0.00  0.00    -0.479 OA
ATOM     13  H   UNL     1      51.645  14.004  11.078  0.00  0.00    +0.397 HD
ENDBRANCH  11  12
BRANCH  18  19
ATOM     19  O   UNL     1      45.584  13.487  17.733  0.00  0.00    -0.292 OA
ATOM     20  C   UNL     1      45.184  13.065  19.038  0.00  0.00    +0.256 C 
ENDBRANCH  18  19
BRANCH  21  22
ATOM     22  O   UNL     1      46.377  16.083  17.255  0.00  0.00    -0.315 OA
ATOM     23  C   UNL     1      45.825  16.529  18.495  0.00  0.00    +0.246 C 
ENDBRANCH  21  22
BRANCH  24  25
ATOM     25  O   UNL     1      49.036  16.652  16.955  0.00  0.00    -0.249 OA
BRANCH  25  26
ATOM     26  C   UNL     1      49.327  17.425  18.033  0.00  0.00    +0.117 A 
ATOM     27  C   UNL     1      50.538  17.274  18.693  0.00  0.00    -0.062 A 
ATOM     28  C   UNL     1      50.827  18.064  19.785  0.00  0.00    +0.041 A 
ATOM     29  C   UNL     1      49.914  19.010  20.228  0.00  0.00    -0.097 A 
ATOM     30  C   UNL     1      48.708  19.161  19.577  0.00  0.00    -0.071 A 
ATOM     31  C   UNL     1      47.680  20.165  20.030  0.00  0.00    +0.232 C 
ATOM     41  N   UNL     1      48.293  21.167  20.907  0.00  0.00    -0.666 NA
ATOM     42  H   UNL     1      48.900  21.781  20.387  0.00  0.00    +0.344 HD
ATOM     43  C   UNL     1      49.023  20.508  22.003  0.00  0.00    +0.219 C 
ATOM     44  C   UNL     1      50.278  19.853  21.423  0.00  0.00    +0.041 C 
ATOM     45  C   UNL     1      48.417  18.372  18.474  0.00  0.00    +0.005 A 
BRANCH  31  32
ATOM     32  C   UNL     1      47.084  20.864  18.806  0.00  0.00    +0.084 C 
BRANCH  32  33
ATOM     33  C   UNL     1      45.596  21.017  18.991  0.00  0.00    -0.084 A 
ATOM     34  C   UNL     1      45.080  22.195  19.498  0.00  0.00    +0.019 A 
ATOM     35  C   UNL     1      43.717  22.336  19.668  0.00  0.00    -0.019 A 
ATOM     36  C   UNL     1      42.865  21.294  19.331  0.00  0.00    +0.104 A 
ATOM     39  C   UNL     1      43.385  20.113  18.822  0.00  0.00    -0.016 A 
ATOM     40  C   UNL     1      44.749  19.979  18.648  0.00  0.00    +0.046 A 
BRANCH  36  37
ATOM     37  O   UNL     1      41.523  21.431  19.498  0.00  0.00    -0.501 OA
ATOM     38  H   UNL     1      41.001  21.158  18.731  0.00  0.00    +0.392 HD
ENDBRANCH  36  37
ENDBRANCH  32  33
ENDBRANCH  31  32
ENDBRANCH  25  26
ENDBRANCH  24  25
TORSDOF 9
ENDMDL
MODEL 2
REMARK VINA RESULT:      -7.6      3.129      6.175
REMARK  Name = ZINC95486212
REMARK  12 active torsions:
REMARK  status: ('A' for Active; 'I' for Inactive)
REMARK    1  A    between atoms: C1_1  and  N1_2
REMARK    2  A    between atoms: C6_8  and  O6_46
REMARK    3  A    between atoms: C7_9  and  O5_45
REMARK    4  A    between atoms: C15_18  and  O4_43
REMARK    5  A    between atoms: C16_19  and  O3_41
REMARK    6  A    between atoms: C17_20  and  O1_21
REMARK    7  A    between atoms: O1_21  and  C18_22
REMARK    8  A    between atoms: C24_28  and  C27_33
REMARK    9  A    between atoms: C27_33  and  C28_34
REMARK   10  A    between atoms: C31_37  and  O2_40
REMARK   11  A    between atoms: O3_41  and  C34_42
REMARK   12  A    between atoms: O4_43  and  C35_44
REMARK                            x       y       z     vdW  Elec       q    Type
REMARK                         _______ _______ _______ _____ _____    ______ ____
ROOT
ATOM      1  C   UNL     1      48.339  15.496  22.242  0.00  0.00    +0.333 C 
ATOM      2  N   UNL     1      47.592  14.592  21.357  0.00  0.00    -0.372 N 
ATOM      3  H   UNL     1      47.798  13.635  21.603  0.00  0.00    +0.434 HD
ATOM      4  C   UNL     1      46.157  14.837  21.509  0.00  0.00    +0.239 C 
ATOM      5  C   UNL     1      45.379  13.727  20.801  0.00  0.00    +0.143 C 
ATOM      6  C   UNL     1      45.883  13.575  19.388  0.00  0.00    -0.074 A 
ATOM      7  C   UNL     1      45.094  12.901  18.470  0.00  0.00    +0.027 A 
ATOM      8  C   UNL     1      45.524  12.739  17.164  0.00  0.00    +0.113 A 
ATOM     11  C   UNL     1      46.756  13.256  16.777  0.00  0.00    +0.101 A 
ATOM     14  C   UNL     1      47.539  13.928  17.698  0.00  0.00    +0.042 A 
ATOM     15  C   UNL     1      47.104  14.090  19.006  0.00  0.00    -0.114 A 
ATOM     16  C   UNL     1      45.761  16.168  20.935  0.00  0.00    -0.068 A 
ATOM     17  C   UNL     1      44.533  16.705  21.295  0.00  0.00    -0.029 A 
ATOM     18  C   UNL     1      44.125  17.929  20.791  0.00  0.00    +0.140 A 
ATOM     21  C   UNL     1      44.949  18.627  19.917  0.00  0.00    +0.087 A 
ATOM     24  C   UNL     1      46.187  18.113  19.598  0.00  0.00    +0.121 A 
ATOM     46  C   UNL     1      46.588  16.878  20.095  0.00  0.00    -0.118 A 
ATOM     47  C   UNL     1      47.930  16.332  19.680  0.00  0.00    +0.144 C 
ATOM     48  C   UNL     1      47.989  14.832  19.969  0.00  0.00    +0.238 C 
ENDROOT
BRANCH   8   9
ATOM      9  O   UNL     1      44.746  12.077  16.265  0.00  0.00    -0.481 OA
ATOM     10  H   UNL     1      45.117  12.046  15.373  0.00  0.00    +0.399 HD
ENDBRANCH   8   9
BRANCH  11  12
ATOM     12  O   UNL     1      47.189  13.100  15.497  0.00  0.00    -0.479 OA
ATOM     13  H   UNL     1      47.675  13.862  15.151  0.00  0.00    +0.397 HD
ENDBRANCH  11  12
BRANCH  18  19
ATOM     19  O   UNL     1      42.919  18.445  21.150  0.00  0.00    -0.292 OA
ATOM     20  C   UNL     1      42.772  18.870  22.505  0.00  0.00    +0.256 C 
ENDBRANCH  18  19
BRANCH  21  22
ATOM     22  O   UNL     1      44.555  19.828  19.416  0.00  0.00    -0.315 OA
ATOM     23  C   UNL     1      44.811  20.982  20.218  0.00  0.00    +0.246 C 
ENDBRANCH  21  22
BRANCH  24  25
ATOM     25  O   UNL     1      47.002  18.800  18.753  0.00  0.00    -0.249 OA
BRANCH  25  26
ATOM     26  C   UNL     1      48.121  19.370  19.270  0.00  0.00    +0.117 A 
ATOM     27  C   UNL     1      48.280  19.473  20.645  0.00  0.00    -0.062 A 
ATOM     28  C   UNL     1      49.420  20.051  21.162  0.00  0.00    +0.041 A 
ATOM     29  C   UNL     1      50.409  20.532  20.316  0.00  0.00    -0.097 A 
ATOM     30  C   UNL     1      50.252  20.436  18.949  0.00  0.00    -0.071 A 
ATOM     31  C   UNL     1      51.293  20.955  17.991  0.00  0.00    +0.232 C 
ATOM     41  N   UNL     1      52.572  21.151  18.679  0.00  0.00    -0.666 NA
ATOM     42  H   UNL     1      52.996  20.266  18.913  0.00  0.00    +0.344 HD
ATOM     43  C   UNL     1      52.384  21.980  19.881  0.00  0.00    +0.219 C 
ATOM     44  C   UNL     1      51.639  21.151  20.928  0.00  0.00    +0.041 C 
ATOM     45  C   UNL     1      49.111  19.848  18.426  0.00  0.00    +0.005 A 
BRANCH  31  32
ATOM     32  C   UNL     1      51.481  19.948  16.855  0.00  0.00    +0.084 C 
BRANCH  32  33
ATOM     33  C   UNL     1      51.735  18.580  17.433  0.00  0.00    -0.084 A 
ATOM     34  C   UNL     1      52.710  18.409  18.399  0.00  0.00    +0.019 A 
ATOM     35  C   UNL     1      52.945  17.156  18.930  0.00  0.00    -0.019 A 
ATOM     36  C   UNL     1      52.203  16.068  18.493  0.00  0.00    +0.104 A 
ATOM     39  C   UNL     1      51.227  16.242  17.523  0.00  0.00    -0.016 A 
ATOM     40  C   UNL     1      50.991  17.499  16.999  0.00  0.00    +0.046 A 
BRANCH  36  37
ATOM     37  O   UNL     1      52.434  14.834  19.013  0.00  0.00    -0.501 OA
ATOM     38  H   UNL     1      53.139  14.345  18.567  0.00  0.00    +0.392 HD
ENDBRANCH  36  37
ENDBRANCH  32  33
ENDBRANCH  31  32
ENDBRANCH  25  26
ENDBRANCH  24  25
TORSDOF 9
ENDMDL
MODEL 3
REMARK VINA RESULT:      -7.5      2.595      8.091
REMARK  Name = ZINC95486212
REMARK  12 active torsions:
REMARK  status: ('A' for Active; 'I' for Inactive)
REMARK    1  A    between atoms: C1_1  and  N1_2
REMARK    2  A    between atoms: C6_8  and  O6_46
REMARK    3  A    between atoms: C7_9  and  O5_45
REMARK    4  A    between atoms: C15_18  and  O4_43
REMARK    5  A    between atoms: C16_19  and  O3_41
REMARK    6  A    between atoms: C17_20  and  O1_21
REMARK    7  A    between atoms: O1_21  and  C18_22
REMARK    8  A    between atoms: C24_28  and  C27_33
REMARK    9  A    between atoms: C27_33  and  C28_34
REMARK   10  A    between atoms: C31_37  and  O2_40
REMARK   11  A    between atoms: O3_41  and  C34_42
REMARK   12  A    between atoms: O4_43  and  C35_44
REMARK                            x       y       z     vdW  Elec       q    Type
REMARK                         _______ _______ _______ _____ _____    ______ ____
ROOT
ATOM      1  C   UNL     1      51.605  19.421  15.745  0.00  0.00    +0.333 C 
ATOM      2  N   UNL     1      52.192  18.952  17.007  0.00  0.00    -0.372 N 
ATOM      3  H   UNL     1      53.197  19.044  16.965  0.00  0.00    +0.434 HD
ATOM      4  C   UNL     1      51.676  19.758  18.115  0.00  0.00    +0.239 C 
ATOM      5  C   UNL     1      52.481  19.454  19.378  0.00  0.00    +0.143 C 
ATOM      6  C   UNL     1      52.529  17.964  19.604  0.00  0.00    -0.074 A 
ATOM      7  C   UNL     1      52.880  17.492  20.859  0.00  0.00    +0.027 A 
ATOM      8  C   UNL     1      52.937  16.132  21.104  0.00  0.00    +0.113 A 
ATOM     11  C   UNL     1      52.641  15.236  20.081  0.00  0.00    +0.101 A 
ATOM     14  C   UNL     1      52.290  15.712  18.831  0.00  0.00    +0.042 A 
ATOM     15  C   UNL     1      52.232  17.078  18.589  0.00  0.00    -0.114 A 
ATOM     16  C   UNL     1      50.221  19.476  18.370  0.00  0.00    -0.068 A 
ATOM     17  C   UNL     1      49.496  20.380  19.133  0.00  0.00    -0.029 A 
ATOM     18  C   UNL     1      48.155  20.163  19.396  0.00  0.00    +0.140 A 
ATOM     21  C   UNL     1      47.526  19.030  18.893  0.00  0.00    +0.087 A 
ATOM     24  C   UNL     1      48.237  18.159  18.098  0.00  0.00    +0.121 A 
ATOM     46  C   UNL     1      49.587  18.373  17.847  0.00  0.00    -0.118 A 
ATOM     47  C   UNL     1      50.337  17.367  17.012  0.00  0.00    +0.144 C 
ATOM     48  C   UNL     1      51.841  17.546  17.215  0.00  0.00    +0.238 C 
ENDROOT
BRANCH   8   9
ATOM      9  O   UNL     1      53.282  15.672  22.337  0.00  0.00    -0.481 OA
ATOM     10  H   UNL     1      52.529  15.402  22.880  0.00  0.00    +0.399 HD
ENDBRANCH   8   9
BRANCH  11  12
ATOM     12  O   UNL     1      52.696  13.896  20.310  0.00  0.00    -0.479 OA
ATOM     13  H   UNL     1      53.136  13.395  19.610  0.00  0.00    +0.397 HD
ENDBRANCH  11  12
BRANCH  18  19
ATOM     19  O   UNL     1      47.454  21.055  20.146  0.00  0.00    -0.292 OA
ATOM     20  C   UNL     1      47.976  21.368  21.438  0.00  0.00    +0.256 C 
ENDBRANCH  18  19
BRANCH  21  22
ATOM     22  O   UNL     1      46.209  18.808  19.148  0.00  0.00    -0.315 OA
ATOM     23  C   UNL     1      45.265  19.394  18.249  0.00  0.00    +0.246 C 
ENDBRANCH  21  22
BRANCH  24  25
ATOM     25  O   UNL     1      47.621  17.056  17.593  0.00  0.00    -0.249 OA
BRANCH  25  26
ATOM     26  C   UNL     1      47.884  15.857  18.173  0.00  0.00    +0.117 A 
ATOM     27  C   UNL     1      47.634  15.665  19.524  0.00  0.00    -0.062 A 
ATOM     28  C   UNL     1      47.902  14.444  20.105  0.00  0.00    +0.041 A 
ATOM     29  C   UNL     1      48.422  13.405  19.347  0.00  0.00    -0.097 A 
ATOM     30  C   UNL     1      48.676  13.592  18.005  0.00  0.00    -0.071 A 
ATOM     31  C   UNL     1      49.252  12.498  17.144  0.00  0.00    +0.232 C 
ATOM     41  N   UNL     1      49.092  11.194  17.796  0.00  0.00    -0.666 NA
ATOM     42  H   UNL     1      48.125  10.907  17.797  0.00  0.00    +0.344 HD
ATOM     43  C   UNL     1      49.630  11.238  19.165  0.00  0.00    +0.219 C 
ATOM     44  C   UNL     1      48.693  12.087  20.026  0.00  0.00    +0.041 C 
ATOM     45  C   UNL     1      48.400  14.817  17.416  0.00  0.00    +0.005 A 
BRANCH  31  32
ATOM     32  C   UNL     1      48.527  12.480  15.797  0.00  0.00    +0.084 C 
BRANCH  32  33
ATOM     33  C   UNL     1      49.507  12.794  14.696  0.00  0.00    -0.084 A 
ATOM     34  C   UNL     1      49.087  12.798  13.378  0.00  0.00    +0.019 A 
ATOM     35  C   UNL     1      49.984  13.085  12.368  0.00  0.00    -0.019 A 
ATOM     36  C   UNL     1      51.307  13.368  12.676  0.00  0.00    +0.104 A 
ATOM     39  C   UNL     1      51.725  13.363  13.998  0.00  0.00    -0.016 A 
ATOM     40  C   UNL     1      50.823  13.082  15.006  0.00  0.00    +0.046 A 
BRANCH  36  37
ATOM     37  O   UNL     1      52.191  13.650  11.683  0.00  0.00    -0.501 OA
ATOM     38  H   UNL     1      52.128  13.059  10.920  0.00  0.00    +0.392 HD
ENDBRANCH  36  37
ENDBRANCH  32  33
ENDBRANCH  31  32
ENDBRANCH  25  26
ENDBRANCH  24  25
TORSDOF 9
ENDMDL
MODEL 4
REMARK VINA RESULT:      -7.1      2.461      8.656
REMARK  Name = ZINC95486212
REMARK  12 active torsions:
REMARK  status: ('A' for Active; 'I' for Inactive)
REMARK    1  A    between atoms: C1_1  and  N1_2
REMARK    2  A    between atoms: C6_8  and  O6_46
REMARK    3  A    between atoms: C7_9  and  O5_45
REMARK    4  A    between atoms: C15_18  and  O4_43
REMARK    5  A    between atoms: C16_19  and  O3_41
REMARK    6  A    between atoms: C17_20  and  O1_21
REMARK    7  A    between atoms: O1_21  and  C18_22
REMARK    8  A    between atoms: C24_28  and  C27_33
REMARK    9  A    between atoms: C27_33  and  C28_34
REMARK   10  A    between atoms: C31_37  and  O2_40
REMARK   11  A    between atoms: O3_41  and  C34_42
REMARK   12  A    between atoms: O4_43  and  C35_44
REMARK                            x       y       z     vdW  Elec       q    Type
REMARK                         _______ _______ _______ _____ _____    ______ ____
ROOT
ATOM      1  C   UNL     1      51.318  20.391  16.197  0.00  0.00    +0.333 C 
ATOM      2  N   UNL     1      51.876  19.972  17.490  0.00  0.00    -0.372 N 
ATOM      3  H   UNL     1      52.728  20.482  17.669  0.00  0.00    +0.434 HD
ATOM      4  C   UNL     1      50.909  20.251  18.552  0.00  0.00    +0.239 C 
ATOM      5  C   UNL     1      51.585  20.069  19.911  0.00  0.00    +0.143 C 
ATOM      6  C   UNL     1      52.265  18.724  19.964  0.00  0.00    -0.074 A 
ATOM      7  C   UNL     1      52.616  18.206  21.201  0.00  0.00    +0.027 A 
ATOM      8  C   UNL     1      53.243  16.976  21.290  0.00  0.00    +0.113 A 
ATOM     11  C   UNL     1      53.521  16.260  20.130  0.00  0.00    +0.101 A 
ATOM     14  C   UNL     1      53.168  16.781  18.899  0.00  0.00    +0.042 A 
ATOM     15  C   UNL     1      52.537  18.015  18.813  0.00  0.00    -0.114 A 
ATOM     16  C   UNL     1      49.715  19.341  18.463  0.00  0.00    -0.068 A 
ATOM     17  C   UNL     1      48.566  19.687  19.159  0.00  0.00    -0.029 A 
ATOM     18  C   UNL     1      47.442  18.880  19.109  0.00  0.00    +0.140 A 
ATOM     21  C   UNL     1      47.463  17.712  18.356  0.00  0.00    +0.087 A 
ATOM     24  C   UNL     1      48.589  17.395  17.629  0.00  0.00    +0.121 A 
ATOM     46  C   UNL     1      49.720  18.201  17.693  0.00  0.00    -0.118 A 
ATOM     47  C   UNL     1      50.946  17.789  16.920  0.00  0.00    +0.144 C 
ATOM     48  C   UNL     1      52.168  18.538  17.453  0.00  0.00    +0.238 C 
ENDROOT
BRANCH   8   9
ATOM      9  O   UNL     1      53.587  16.470  22.505  0.00  0.00    -0.481 OA
ATOM     10  H   UNL     1      52.831  16.244  23.065  0.00  0.00    +0.399 HD
ENDBRANCH   8   9
BRANCH  11  12
ATOM     12  O   UNL     1      54.140  15.050  20.206  0.00  0.00    -0.479 OA
ATOM     13  H   UNL     1      53.887  14.434  19.504  0.00  0.00    +0.397 HD
ENDBRANCH  11  12
BRANCH  18  19
ATOM     19  O   UNL     1      46.321  19.228  19.796  0.00  0.00    -0.292 OA
ATOM     20  C   UNL     1      46.419  19.267  21.220  0.00  0.00    +0.256 C 
ENDBRANCH  18  19
BRANCH  21  22
ATOM     22  O   UNL     1      46.364  16.912  18.302  0.00  0.00    -0.315 OA
ATOM     23  C   UNL     1      46.215  15.943  19.341  0.00  0.00    +0.246 C 
ENDBRANCH  21  22
BRANCH  24  25
ATOM     25  O   UNL     1      48.608  16.259  16.881  0.00  0.00    -0.249 OA
BRANCH  25  26
ATOM     26  C   UNL     1      49.410  15.241  17.287  0.00  0.00    +0.117 A 
ATOM     27  C   UNL     1      49.787  15.139  18.618  0.00  0.00    -0.062 A 
ATOM     28  C   UNL     1      50.599  14.100  19.023  0.00  0.00    +0.041 A 
ATOM     29  C   UNL     1      51.043  13.158  18.106  0.00  0.00    -0.097 A 
ATOM     30  C   UNL     1      50.674  13.259  16.782  0.00  0.00    -0.071 A 
ATOM     31  C   UNL     1      51.141  12.267  15.749  0.00  0.00    +0.232 C 
ATOM     41  N   UNL     1      51.632  11.046  16.394  0.00  0.00    -0.666 NA
ATOM     42  H   UNL     1      50.871  10.517  16.793  0.00  0.00    +0.344 HD
ATOM     43  C   UNL     1      52.636  11.377  17.417  0.00  0.00    +0.219 C 
ATOM     44  C   UNL     1      51.925  12.040  18.598  0.00  0.00    +0.041 C 
ATOM     45  C   UNL     1      49.850  14.297  16.373  0.00  0.00    +0.005 A 
BRANCH  31  32
ATOM     32  C   UNL     1      49.974  11.914  14.823  0.00  0.00    +0.084 C 
BRANCH  32  33
ATOM     33  C   UNL     1      50.411  12.059  13.388  0.00  0.00    -0.084 A 
ATOM     34  C   UNL     1      51.180  11.074  12.797  0.00  0.00    +0.019 A 
ATOM     35  C   UNL     1      51.581  11.206  11.482  0.00  0.00    -0.019 A 
ATOM     36  C   UNL     1      51.213  12.329  10.754  0.00  0.00    +0.104 A 
ATOM     39  C   UNL     1      50.442  13.316  11.350  0.00  0.00    -0.016 A 
ATOM     40  C   UNL     1      50.038  13.177  12.664  0.00  0.00    +0.046 A 
BRANCH  36  37
ATOM     37  O   UNL     1      51.607  12.461   9.460  0.00  0.00    -0.501 OA
ATOM     38  H   UNL     1      51.447  13.339   9.088  0.00  0.00    +0.392 HD
ENDBRANCH  36  37
ENDBRANCH  32  33
ENDBRANCH  31  32
ENDBRANCH  25  26
ENDBRANCH  24  25
TORSDOF 9
ENDMDL
MODEL 5
REMARK VINA RESULT:      -6.9      1.775      9.540
REMARK  Name = ZINC95486212
REMARK  12 active torsions:
REMARK  status: ('A' for Active; 'I' for Inactive)
REMARK    1  A    between atoms: C1_1  and  N1_2
REMARK    2  A    between atoms: C6_8  and  O6_46
REMARK    3  A    between atoms: C7_9  and  O5_45
REMARK    4  A    between atoms: C15_18  and  O4_43
REMARK    5  A    between atoms: C16_19  and  O3_41
REMARK    6  A    between atoms: C17_20  and  O1_21
REMARK    7  A    between atoms: O1_21  and  C18_22
REMARK    8  A    between atoms: C24_28  and  C27_33
REMARK    9  A    between atoms: C27_33  and  C28_34
REMARK   10  A    between atoms: C31_37  and  O2_40
REMARK   11  A    between atoms: O3_41  and  C34_42
REMARK   12  A    between atoms: O4_43  and  C35_44
REMARK                            x       y       z     vdW  Elec       q    Type
REMARK                         _______ _______ _______ _____ _____    ______ ____
ROOT
ATOM      1  C   UNL     1      47.223  16.385  21.946  0.00  0.00    +0.333 C 
ATOM      2  N   UNL     1      46.606  17.707  21.777  0.00  0.00    -0.372 N 
ATOM      3  H   UNL     1      46.070  17.936  22.601  0.00  0.00    +0.434 HD
ATOM      4  C   UNL     1      47.653  18.712  21.583  0.00  0.00    +0.239 C 
ATOM      5  C   UNL     1      47.037  20.108  21.677  0.00  0.00    +0.143 C 
ATOM      6  C   UNL     1      45.845  20.200  20.758  0.00  0.00    -0.074 A 
ATOM      7  C   UNL     1      45.369  21.454  20.411  0.00  0.00    +0.027 A 
ATOM      8  C   UNL     1      44.276  21.580  19.572  0.00  0.00    +0.113 A 
ATOM     11  C   UNL     1      43.655  20.438  19.076  0.00  0.00    +0.101 A 
ATOM     14  C   UNL     1      44.135  19.189  19.424  0.00  0.00    +0.042 A 
ATOM     15  C   UNL     1      45.233  19.066  20.266  0.00  0.00    -0.114 A 
ATOM     16  C   UNL     1      48.328  18.554  20.249  0.00  0.00    -0.068 A 
ATOM     17  C   UNL     1      49.549  19.182  20.046  0.00  0.00    -0.029 A 
ATOM     18  C   UNL     1      50.207  19.066  18.834  0.00  0.00    +0.140 A 
ATOM     21  C   UNL     1      49.643  18.315  17.809  0.00  0.00    +0.087 A 
ATOM     24  C   UNL     1      48.454  17.655  18.029  0.00  0.00    +0.121 A 
ATOM     46  C   UNL     1      47.789  17.785  19.243  0.00  0.00    -0.118 A 
ATOM     47  C   UNL     1      46.467  17.084  19.422  0.00  0.00    +0.144 C 
ATOM     48  C   UNL     1      45.721  17.687  20.612  0.00  0.00    +0.238 C 
ENDROOT
BRANCH   8   9
ATOM      9  O   UNL     1      43.811  22.813  19.233  0.00  0.00    -0.481 OA
ATOM     10  H   UNL     1      43.946  23.042  18.304  0.00  0.00    +0.399 HD
ENDBRANCH   8   9
BRANCH  11  12
ATOM     12  O   UNL     1      42.579  20.549  18.252  0.00  0.00    -0.479 OA
ATOM     13  H   UNL     1      41.751  20.233  18.641  0.00  0.00    +0.397 HD
ENDBRANCH  11  12
BRANCH  18  19
ATOM     19  O   UNL     1      51.402  19.687  18.645  0.00  0.00    -0.292 OA
ATOM     20  C   UNL     1      51.513  21.035  19.105  0.00  0.00    +0.256 C 
ENDBRANCH  18  19
BRANCH  21  22
ATOM     22  O   UNL     1      50.283  18.198  16.614  0.00  0.00    -0.315 OA
ATOM     23  C   UNL     1      51.442  17.363  16.578  0.00  0.00    +0.246 C 
ENDBRANCH  21  22
BRANCH  24  25
ATOM     25  O   UNL     1      47.907  16.909  17.033  0.00  0.00    -0.249 OA
BRANCH  25  26
ATOM     26  C   UNL     1      47.833  15.564  17.211  0.00  0.00    +0.117 A 
ATOM     27  C   UNL     1      46.620  14.907  17.067  0.00  0.00    -0.062 A 
ATOM     28  C   UNL     1      46.555  13.541  17.247  0.00  0.00    +0.041 A 
ATOM     29  C   UNL     1      47.695  12.820  17.571  0.00  0.00    -0.097 A 
ATOM     30  C   UNL     1      48.902  13.470  17.719  0.00  0.00    -0.071 A 
ATOM     31  C   UNL     1      50.163  12.732  18.082  0.00  0.00    +0.232 C 
ATOM     41  N   UNL     1      50.007  11.295  17.835  0.00  0.00    -0.666 NA
ATOM     42  H   UNL     1      49.984  11.098  16.847  0.00  0.00    +0.344 HD
ATOM     43  C   UNL     1      48.794  10.792  18.501  0.00  0.00    +0.219 C 
ATOM     44  C   UNL     1      47.573  11.329  17.752  0.00  0.00    +0.041 C 
ATOM     45  C   UNL     1      48.972  14.842  17.531  0.00  0.00    +0.005 A 
BRANCH  31  32
ATOM     32  C   UNL     1      51.322  13.265  17.237  0.00  0.00    +0.084 C 
BRANCH  32  33
ATOM     33  C   UNL     1      51.325  12.575  15.897  0.00  0.00    -0.084 A 
ATOM     34  C   UNL     1      52.064  11.420  15.716  0.00  0.00    +0.019 A 
ATOM     35  C   UNL     1      52.068  10.787  14.489  0.00  0.00    -0.019 A 
ATOM     36  C   UNL     1      51.332  11.311  13.437  0.00  0.00    +0.104 A 
ATOM     39  C   UNL     1      50.592  12.470  13.620  0.00  0.00    -0.016 A 
ATOM     40  C   UNL     1      50.586  13.097  14.851  0.00  0.00    +0.046 A 
BRANCH  36  37
ATOM     37  O   UNL     1      51.335  10.690  12.228  0.00  0.00    -0.501 OA
ATOM     38  H   UNL     1      51.927  11.096  11.579  0.00  0.00    +0.392 HD
ENDBRANCH  36  37
ENDBRANCH  32  33
ENDBRANCH  31  32
ENDBRANCH  25  26
ENDBRANCH  24  25
TORSDOF 9
ENDMDL
MODEL 6
REMARK VINA RESULT:      -6.9      2.484      4.675
REMARK  Name = ZINC95486212
REMARK  12 active torsions:
REMARK  status: ('A' for Active; 'I' for Inactive)
REMARK    1  A    between atoms: C1_1  and  N1_2
REMARK    2  A    between atoms: C6_8  and  O6_46
REMARK    3  A    between atoms: C7_9  and  O5_45
REMARK    4  A    between atoms: C15_18  and  O4_43
REMARK    5  A    between atoms: C16_19  and  O3_41
REMARK    6  A    between atoms: C17_20  and  O1_21
REMARK    7  A    between atoms: O1_21  and  C18_22
REMARK    8  A    between atoms: C24_28  and  C27_33
REMARK    9  A    between atoms: C27_33  and  C28_34
REMARK   10  A    between atoms: C31_37  and  O2_40
REMARK   11  A    between atoms: O3_41  and  C34_42
REMARK   12  A    between atoms: O4_43  and  C35_44
REMARK                            x       y       z     vdW  Elec       q    Type
REMARK                         _______ _______ _______ _____ _____    ______ ____
ROOT
ATOM      1  C   UNL     1      52.073  17.522  19.201  0.00  0.00    +0.333 C 
ATOM      2  N   UNL     1      52.236  16.172  18.644  0.00  0.00    -0.372 N 
ATOM      3  H   UNL     1      53.211  16.009  18.441  0.00  0.00    +0.434 HD
ATOM      4  C   UNL     1      51.768  15.184  19.616  0.00  0.00    +0.239 C 
ATOM      5  C   UNL     1      52.183  13.787  19.154  0.00  0.00    +0.143 C 
ATOM      6  C   UNL     1      51.749  13.574  17.726  0.00  0.00    -0.074 A 
ATOM      7  C   UNL     1      51.692  12.280  17.234  0.00  0.00    +0.027 A 
ATOM      8  C   UNL     1      51.301  12.045  15.927  0.00  0.00    +0.113 A 
ATOM     11  C   UNL     1      50.965  13.118  15.107  0.00  0.00    +0.101 A 
ATOM     14  C   UNL     1      51.023  14.407  15.603  0.00  0.00    +0.042 A 
ATOM     15  C   UNL     1      51.414  14.639  16.915  0.00  0.00    -0.114 A 
ATOM     16  C   UNL     1      50.274  15.233  19.777  0.00  0.00    -0.068 A 
ATOM     17  C   UNL     1      49.708  14.622  20.887  0.00  0.00    -0.029 A 
ATOM     18  C   UNL     1      48.336  14.640  21.077  0.00  0.00    +0.140 A 
ATOM     21  C   UNL     1      47.518  15.275  20.150  0.00  0.00    +0.087 A 
ATOM     24  C   UNL     1      48.087  15.919  19.074  0.00  0.00    +0.121 A 
ATOM     46  C   UNL     1      49.463  15.887  18.879  0.00  0.00    -0.118 A 
ATOM     47  C   UNL     1      50.037  16.565  17.662  0.00  0.00    +0.144 C 
ATOM     48  C   UNL     1      51.457  16.058  17.410  0.00  0.00    +0.238 C 
ENDROOT
BRANCH   8   9
ATOM      9  O   UNL     1      51.246  10.773  15.448  0.00  0.00    -0.481 OA
ATOM     10  H   UNL     1      52.098  10.317  15.444  0.00  0.00    +0.399 HD
ENDBRANCH   8   9
BRANCH  11  12
ATOM     12  O   UNL     1      50.581  12.898  13.820  0.00  0.00    -0.479 OA
ATOM     13  H   UNL     1      50.415  11.968  13.613  0.00  0.00    +0.397 HD
ENDBRANCH  11  12
BRANCH  18  19
ATOM     19  O   UNL     1      47.792  14.038  22.167  0.00  0.00    -0.292 OA
ATOM     20  C   UNL     1      47.870  12.613  22.229  0.00  0.00    +0.256 C 
ENDBRANCH  18  19
BRANCH  21  22
ATOM     22  O   UNL     1      46.170  15.296  20.328  0.00  0.00    -0.315 OA
ATOM     23  C   UNL     1      45.424  14.214  19.767  0.00  0.00    +0.246 C 
ENDBRANCH  21  22
BRANCH  24  25
ATOM     25  O   UNL     1      47.290  16.552  18.172  0.00  0.00    -0.249 OA
BRANCH  25  26
ATOM     26  C   UNL     1      46.653  17.685  18.569  0.00  0.00    +0.117 A 
ATOM     27  C   UNL     1      45.278  17.799  18.422  0.00  0.00    -0.062 A 
ATOM     28  C   UNL     1      44.638  18.951  18.830  0.00  0.00    +0.041 A 
ATOM     29  C   UNL     1      45.362  19.997  19.385  0.00  0.00    -0.097 A 
ATOM     30  C   UNL     1      46.729  19.888  19.529  0.00  0.00    -0.071 A 
ATOM     31  C   UNL     1      47.557  21.002  20.114  0.00  0.00    +0.232 C 
ATOM     41  N   UNL     1      46.707  21.944  20.848  0.00  0.00    -0.666 NA
ATOM     42  H   UNL     1      46.364  21.532  21.702  0.00  0.00    +0.344 HD
ATOM     43  C   UNL     1      45.594  22.396  19.998  0.00  0.00    +0.219 C 
ATOM     44  C   UNL     1      44.617  21.233  19.819  0.00  0.00    +0.041 C 
ATOM     45  C   UNL     1      47.374  18.728  19.127  0.00  0.00    +0.005 A 
BRANCH  31  32
ATOM     32  C   UNL     1      48.595  20.410  21.070  0.00  0.00    +0.084 C 
BRANCH  32  33
ATOM     33  C   UNL     1      49.978  20.794  20.609  0.00  0.00    -0.084 A 
ATOM     34  C   UNL     1      50.959  21.088  21.538  0.00  0.00    +0.019 A 
ATOM     35  C   UNL     1      52.226  21.440  21.118  0.00  0.00    -0.019 A 
ATOM     36  C   UNL     1      52.515  21.501  19.762  0.00  0.00    +0.104 A 
ATOM     39  C   UNL     1      51.529  21.207  18.832  0.00  0.00    -0.016 A 
ATOM     40  C   UNL     1      50.264  20.849  19.258  0.00  0.00    +0.046 A 
BRANCH  36  37
ATOM     37  O   UNL     1      53.761  21.849  19.346  0.00  0.00    -0.501 OA
ATOM     38  H   UNL     1      54.338  22.166  20.055  0.00  0.00    +0.392 HD
ENDBRANCH  36  37
ENDBRANCH  32  33
ENDBRANCH  31  32
ENDBRANCH  25  26
ENDBRANCH  24  25
TORSDOF 9
ENDMDL
MODEL 7
REMARK VINA RESULT:      -6.8      3.359      5.807
REMARK  Name = ZINC95486212
REMARK  12 active torsions:
REMARK  status: ('A' for Active; 'I' for Inactive)
REMARK    1  A    between atoms: C1_1  and  N1_2
REMARK    2  A    between atoms: C6_8  and  O6_46
REMARK    3  A    between atoms: C7_9  and  O5_45
REMARK    4  A    between atoms: C15_18  and  O4_43
REMARK    5  A    between atoms: C16_19  and  O3_41
REMARK    6  A    between atoms: C17_20  and  O1_21
REMARK    7  A    between atoms: O1_21  and  C18_22
REMARK    8  A    between atoms: C24_28  and  C27_33
REMARK    9  A    between atoms: C27_33  and  C28_34
REMARK   10  A    between atoms: C31_37  and  O2_40
REMARK   11  A    between atoms: O3_41  and  C34_42
REMARK   12  A    between atoms: O4_43  and  C35_44
REMARK                            x       y       z     vdW  Elec       q    Type
REMARK                         _______ _______ _______ _____ _____    ______ ____
ROOT
ATOM      1  C   UNL     1      51.839  19.142  16.086  0.00  0.00    +0.333 C 
ATOM      2  N   UNL     1      52.187  17.907  16.802  0.00  0.00    -0.372 N 
ATOM      3  H   UNL     1      52.921  17.425  16.304  0.00  0.00    +0.434 HD
ATOM      4  C   UNL     1      52.652  18.241  18.150  0.00  0.00    +0.239 C 
ATOM      5  C   UNL     1      53.263  16.997  18.795  0.00  0.00    +0.143 C 
ATOM      6  C   UNL     1      52.298  15.843  18.688  0.00  0.00    -0.074 A 
ATOM      7  C   UNL     1      52.484  14.743  19.511  0.00  0.00    +0.027 A 
ATOM      8  C   UNL     1      51.621  13.664  19.441  0.00  0.00    +0.113 A 
ATOM     11  C   UNL     1      50.563  13.687  18.537  0.00  0.00    +0.101 A 
ATOM     14  C   UNL     1      50.382  14.787  17.719  0.00  0.00    +0.042 A 
ATOM     15  C   UNL     1      51.249  15.869  17.793  0.00  0.00    -0.114 A 
ATOM     16  C   UNL     1      51.528  18.747  19.010  0.00  0.00    -0.068 A 
ATOM     17  C   UNL     1      51.843  19.424  20.180  0.00  0.00    -0.029 A 
ATOM     18  C   UNL     1      50.842  19.908  21.005  0.00  0.00    +0.140 A 
ATOM     21  C   UNL     1      49.509  19.715  20.662  0.00  0.00    +0.087 A 
ATOM     24  C   UNL     1      49.200  19.084  19.477  0.00  0.00    +0.121 A 
ATOM     46  C   UNL     1      50.208  18.587  18.658  0.00  0.00    -0.118 A 
ATOM     47  C   UNL     1      49.821  17.861  17.396  0.00  0.00    +0.144 C 
ATOM     48  C   UNL     1      51.009  17.044  16.887  0.00  0.00    +0.238 C 
ENDROOT
BRANCH   8   9
ATOM      9  O   UNL     1      51.806  12.586  20.250  0.00  0.00    -0.481 OA
ATOM     10  H   UNL     1      51.723  11.736  19.797  0.00  0.00    +0.399 HD
ENDBRANCH   8   9
BRANCH  11  12
ATOM     12  O   UNL     1      49.710  12.630  18.458  0.00  0.00    -0.479 OA
ATOM     13  H   UNL     1      49.559  12.183  19.302  0.00  0.00    +0.397 HD
ENDBRANCH  11  12
BRANCH  18  19
ATOM     19  O   UNL     1      51.162  20.569  22.150  0.00  0.00    -0.292 OA
ATOM     20  C   UNL     1      51.752  21.862  22.009  0.00  0.00    +0.256 C 
ENDBRANCH  18  19
BRANCH  21  22
ATOM     22  O   UNL     1      48.519  20.186  21.467  0.00  0.00    -0.315 OA
ATOM     23  C   UNL     1      47.987  21.474  21.156  0.00  0.00    +0.246 C 
ENDBRANCH  21  22
BRANCH  24  25
ATOM     25  O   UNL     1      47.897  18.906  19.132  0.00  0.00    -0.249 OA
BRANCH  25  26
ATOM     26  C   UNL     1      47.121  18.139  19.941  0.00  0.00    +0.117 A 
ATOM     27  C   UNL     1      47.643  16.994  20.527  0.00  0.00    -0.062 A 
ATOM     28  C   UNL     1      46.851  16.223  21.350  0.00  0.00    +0.041 A 
ATOM     29  C   UNL     1      45.533  16.583  21.595  0.00  0.00    -0.097 A 
ATOM     30  C   UNL     1      45.010  17.717  21.012  0.00  0.00    -0.071 A 
ATOM     31  C   UNL     1      43.582  18.141  21.239  0.00  0.00    +0.232 C 
ATOM     41  N   UNL     1      43.029  17.470  22.419  0.00  0.00    -0.666 NA
ATOM     42  H   UNL     1      43.440  17.831  23.266  0.00  0.00    +0.344 HD
ATOM     43  C   UNL     1      43.222  16.015  22.317  0.00  0.00    +0.219 C 
ATOM     44  C   UNL     1      44.709  15.710  22.505  0.00  0.00    +0.041 C 
ATOM     45  C   UNL     1      45.807  18.500  20.190  0.00  0.00    +0.005 A 
BRANCH  31  32
ATOM     32  C   UNL     1      43.533  19.656  21.451  0.00  0.00    +0.084 C 
BRANCH  32  33
ATOM     33  C   UNL     1      42.545  20.265  20.490  0.00  0.00    -0.084 A 
ATOM     34  C   UNL     1      41.273  19.734  20.377  0.00  0.00    +0.019 A 
ATOM     35  C   UNL     1      40.366  20.290  19.496  0.00  0.00    -0.019 A 
ATOM     36  C   UNL     1      40.732  21.382  18.723  0.00  0.00    +0.104 A 
ATOM     39  C   UNL     1      42.008  21.913  18.837  0.00  0.00    -0.016 A 
ATOM     40  C   UNL     1      42.910  21.357  19.724  0.00  0.00    +0.046 A 
BRANCH  36  37
ATOM     37  O   UNL     1      39.842  21.931  17.855  0.00  0.00    -0.501 OA
ATOM     38  H   UNL     1      39.046  22.282  18.278  0.00  0.00    +0.392 HD
ENDBRANCH  36  37
ENDBRANCH  32  33
ENDBRANCH  31  32
ENDBRANCH  25  26
ENDBRANCH  24  25
TORSDOF 9
ENDMDL
MODEL 8
REMARK VINA RESULT:      -6.8      2.263      4.250
REMARK  Name = ZINC95486212
REMARK  12 active torsions:
REMARK  status: ('A' for Active; 'I' for Inactive)
REMARK    1  A    between atoms: C1_1  and  N1_2
REMARK    2  A    between atoms: C6_8  and  O6_46
REMARK    3  A    between atoms: C7_9  and  O5_45
REMARK    4  A    between atoms: C15_18  and  O4_43
REMARK    5  A    between atoms: C16_19  and  O3_41
REMARK    6  A    between atoms: C17_20  and  O1_21
REMARK    7  A    between atoms: O1_21  and  C18_22
REMARK    8  A    between atoms: C24_28  and  C27_33
REMARK    9  A    between atoms: C27_33  and  C28_34
REMARK   10  A    between atoms: C31_37  and  O2_40
REMARK   11  A    between atoms: O3_41  and  C34_42
REMARK   12  A    between atoms: O4_43  and  C35_44
REMARK                            x       y       z     vdW  Elec       q    Type
REMARK                         _______ _______ _______ _____ _____    ______ ____
ROOT
ATOM      1  C   UNL     1      52.069  15.848  18.554  0.00  0.00    +0.333 C 
ATOM      2  N   UNL     1      52.101  14.679  17.665  0.00  0.00    -0.372 N 
ATOM      3  H   UNL     1      53.038  14.551  17.312  0.00  0.00    +0.434 HD
ATOM      4  C   UNL     1      51.695  13.488  18.412  0.00  0.00    +0.239 C 
ATOM      5  C   UNL     1      51.985  12.243  17.573  0.00  0.00    +0.143 C 
ATOM      6  C   UNL     1      51.385  12.405  16.199  0.00  0.00    -0.074 A 
ATOM      7  C   UNL     1      51.208  11.277  15.414  0.00  0.00    +0.027 A 
ATOM      8  C   UNL     1      50.663  11.386  14.147  0.00  0.00    +0.113 A 
ATOM     11  C   UNL     1      50.293  12.637  13.663  0.00  0.00    +0.101 A 
ATOM     14  C   UNL     1      50.470  13.759  14.452  0.00  0.00    +0.042 A 
ATOM     15  C   UNL     1      51.016  13.646  15.723  0.00  0.00    -0.114 A 
ATOM     16  C   UNL     1      50.232  13.526  18.759  0.00  0.00    -0.068 A 
ATOM     17  C   UNL     1      49.763  12.668  19.743  0.00  0.00    -0.029 A 
ATOM     18  C   UNL     1      48.424  12.667  20.095  0.00  0.00    +0.140 A 
ATOM     21  C   UNL     1      47.540  13.530  19.459  0.00  0.00    +0.087 A 
ATOM     24  C   UNL     1      48.018  14.412  18.515  0.00  0.00    +0.121 A 
ATOM     46  C   UNL     1      49.361  14.402  18.154  0.00  0.00    -0.118 A 
ATOM     47  C   UNL     1      49.829  15.351  17.082  0.00  0.00    +0.144 C 
ATOM     48  C   UNL     1      51.185  14.894  16.544  0.00  0.00    +0.238 C 
ENDROOT
BRANCH   8   9
ATOM      9  O   UNL     1      50.491  10.277  13.378  0.00  0.00    -0.481 OA
ATOM     10  H   UNL     1      51.181   9.609  13.492  0.00  0.00    +0.399 HD
ENDBRANCH   8   9
BRANCH  11  12
ATOM     12  O   UNL     1      49.758  12.756  12.418  0.00  0.00    -0.479 OA
ATOM     13  H   UNL     1      49.268  11.975  12.124  0.00  0.00    +0.397 HD
ENDBRANCH  11  12
BRANCH  18  19
ATOM     19  O   UNL     1      47.974  11.821  21.061  0.00  0.00    -0.292 OA
ATOM     20  C   UNL     1      48.433  12.055  22.393  0.00  0.00    +0.256 C 
ENDBRANCH  18  19
BRANCH  21  22
ATOM     22  O   UNL     1      46.223  13.534  19.798  0.00  0.00    -0.315 OA
ATOM     23  C   UNL     1      45.322  12.873  18.907  0.00  0.00    +0.246 C 
ENDBRANCH  21  22
BRANCH  24  25
ATOM     25  O   UNL     1      47.158  15.268  17.900  0.00  0.00    -0.249 OA
BRANCH  25  26
ATOM     26  C   UNL     1      46.734  16.355  18.595  0.00  0.00    +0.117 A 
ATOM     27  C   UNL     1      45.485  16.354  19.199  0.00  0.00    -0.062 A 
ATOM     28  C   UNL     1      45.063  17.461  19.905  0.00  0.00    +0.041 A 
ATOM     29  C   UNL     1      45.881  18.577  20.015  0.00  0.00    -0.097 A 
ATOM     30  C   UNL     1      47.122  18.583  19.413  0.00  0.00    -0.071 A 
ATOM     31  C   UNL     1      48.038  19.776  19.495  0.00  0.00    +0.232 C 
ATOM     41  N   UNL     1      47.628  20.665  20.586  0.00  0.00    -0.666 NA
ATOM     42  H   UNL     1      47.823  20.251  21.484  0.00  0.00    +0.344 HD
ATOM     43  C   UNL     1      46.201  21.003  20.460  0.00  0.00    +0.219 C 
ATOM     44  C   UNL     1      45.378  19.760  20.801  0.00  0.00    +0.041 C 
ATOM     45  C   UNL     1      47.552  17.469  18.709  0.00  0.00    +0.005 A 
BRANCH  31  32
ATOM     32  C   UNL     1      49.470  19.296  19.747  0.00  0.00    +0.084 C 
BRANCH  32  33
ATOM     33  C   UNL     1      50.370  19.808  18.653  0.00  0.00    -0.084 A 
ATOM     34  C   UNL     1      50.165  21.069  18.122  0.00  0.00    +0.019 A 
ATOM     35  C   UNL     1      50.990  21.539  17.119  0.00  0.00    -0.019 A 
ATOM     36  C   UNL     1      52.023  20.746  16.643  0.00  0.00    +0.104 A 
ATOM     39  C   UNL     1      52.226  19.482  17.175  0.00  0.00    -0.016 A 
ATOM     40  C   UNL     1      51.403  19.018  18.183  0.00  0.00    +0.046 A 
BRANCH  36  37
ATOM     37  O   UNL     1      52.835  21.206  15.654  0.00  0.00    -0.501 OA
ATOM     38  H   UNL     1      53.777  21.072  15.825  0.00  0.00    +0.392 HD
ENDBRANCH  36  37
ENDBRANCH  32  33
ENDBRANCH  31  32
ENDBRANCH  25  26
ENDBRANCH  24  25
TORSDOF 9
ENDMDL
MODEL 9
REMARK VINA RESULT:      -6.7      2.934      7.456
REMARK  Name = ZINC95486212
REMARK  12 active torsions:
REMARK  status: ('A' for Active; 'I' for Inactive)
REMARK    1  A    between atoms: C1_1  and  N1_2
REMARK    2  A    between atoms: C6_8  and  O6_46
REMARK    3  A    between atoms: C7_9  and  O5_45
REMARK    4  A    between atoms: C15_18  and  O4_43
REMARK    5  A    between atoms: C16_19  and  O3_41
REMARK    6  A    between atoms: C17_20  and  O1_21
REMARK    7  A    between atoms: O1_21  and  C18_22
REMARK    8  A    between atoms: C24_28  and  C27_33
REMARK    9  A    between atoms: C27_33  and  C28_34
REMARK   10  A    between atoms: C31_37  and  O2_40
REMARK   11  A    between atoms: O3_41  and  C34_42
REMARK   12  A    between atoms: O4_43  and  C35_44
REMARK                            x       y       z     vdW  Elec       q    Type
REMARK                         _______ _______ _______ _____ _____    ______ ____
ROOT
ATOM      1  C   UNL     1      51.864  19.340  16.153  0.00  0.00    +0.333 C 
ATOM      2  N   UNL     1      52.203  18.165  16.967  0.00  0.00    -0.372 N 
ATOM      3  H   UNL     1      53.018  17.712  16.579  0.00  0.00    +0.434 HD
ATOM      4  C   UNL     1      52.488  18.588  18.339  0.00  0.00    +0.239 C 
ATOM      5  C   UNL     1      53.097  17.418  19.111  0.00  0.00    +0.143 C 
ATOM      6  C   UNL     1      52.225  16.198  18.956  0.00  0.00    -0.074 A 
ATOM      7  C   UNL     1      52.382  15.150  19.851  0.00  0.00    +0.027 A 
ATOM      8  C   UNL     1      51.602  14.013  19.740  0.00  0.00    +0.113 A 
ATOM     11  C   UNL     1      50.656  13.925  18.723  0.00  0.00    +0.101 A 
ATOM     14  C   UNL     1      50.502  14.973  17.835  0.00  0.00    +0.042 A 
ATOM     15  C   UNL     1      51.286  16.113  17.950  0.00  0.00    -0.114 A 
ATOM     16  C   UNL     1      51.243  19.055  19.041  0.00  0.00    -0.068 A 
ATOM     17  C   UNL     1      51.379  19.802  20.202  0.00  0.00    -0.029 A 
ATOM     18  C   UNL     1      50.261  20.253  20.884  0.00  0.00    +0.140 A 
ATOM     21  C   UNL     1      48.991  19.956  20.404  0.00  0.00    +0.087 A 
ATOM     24  C   UNL     1      48.861  19.254  19.226  0.00  0.00    +0.121 A 
ATOM     46  C   UNL     1      49.985  18.791  18.552  0.00  0.00    -0.118 A 
ATOM     47  C   UNL     1      49.792  17.985  17.293  0.00  0.00    +0.144 C 
ATOM     48  C   UNL     1      51.078  17.228  16.963  0.00  0.00    +0.238 C 
ENDROOT
BRANCH   8   9
ATOM      9  O   UNL     1      51.759  12.987  20.619  0.00  0.00    -0.481 OA
ATOM     10  H   UNL     1      51.583  12.115  20.241  0.00  0.00    +0.399 HD
ENDBRANCH   8   9
BRANCH  11  12
ATOM     12  O   UNL     1      49.885  12.811  18.603  0.00  0.00    -0.479 OA
ATOM     13  H   UNL     1      50.124  12.099  19.214  0.00  0.00    +0.397 HD
ENDBRANCH  11  12
BRANCH  18  19
ATOM     19  O   UNL     1      50.406  20.983  22.022  0.00  0.00    -0.292 OA
ATOM     20  C   UNL     1      51.716  21.470  22.318  0.00  0.00    +0.256 C 
ENDBRANCH  18  19
BRANCH  21  22
ATOM     22  O   UNL     1      47.888  20.393  21.069  0.00  0.00    -0.315 OA
ATOM     23  C   UNL     1      47.369  21.671  20.695  0.00  0.00    +0.246 C 
ENDBRANCH  21  22
BRANCH  24  25
ATOM     25  O   UNL     1      47.619  18.973  18.747  0.00  0.00    -0.249 OA
BRANCH  25  26
ATOM     26  C   UNL     1      46.977  17.882  19.239  0.00  0.00    +0.117 A 
ATOM     27  C   UNL     1      46.186  17.990  20.374  0.00  0.00    -0.062 A 
ATOM     28  C   UNL     1      45.536  16.878  20.865  0.00  0.00    +0.041 A 
ATOM     29  C   UNL     1      45.669  15.650  20.233  0.00  0.00    -0.097 A 
ATOM     30  C   UNL     1      46.457  15.537  19.107  0.00  0.00    -0.071 A 
ATOM     31  C   UNL     1      46.641  14.223  18.394  0.00  0.00    +0.232 C 
ATOM     41  N   UNL     1      45.594  13.275  18.785  0.00  0.00    -0.666 NA
ATOM     42  H   UNL     1      44.701  13.544  18.400  0.00  0.00    +0.344 HD
ATOM     43  C   UNL     1      45.525  13.167  20.251  0.00  0.00    +0.219 C 
ATOM     44  C   UNL     1      44.935  14.465  20.805  0.00  0.00    +0.041 C 
ATOM     45  C   UNL     1      47.106  16.656  18.606  0.00  0.00    +0.005 A 
BRANCH  31  32
ATOM     32  C   UNL     1      46.573  14.455  16.883  0.00  0.00    +0.084 C 
BRANCH  32  33
ATOM     33  C   UNL     1      47.291  13.337  16.171  0.00  0.00    -0.084 A 
ATOM     34  C   UNL     1      48.478  13.590  15.509  0.00  0.00    +0.019 A 
ATOM     35  C   UNL     1      49.137  12.566  14.856  0.00  0.00    -0.019 A 
ATOM     36  C   UNL     1      48.607  11.285  14.864  0.00  0.00    +0.104 A 
ATOM     39  C   UNL     1      47.416  11.033  15.528  0.00  0.00    -0.016 A 
ATOM     40  C   UNL     1      46.763  12.059  16.185  0.00  0.00    +0.046 A 
BRANCH  36  37
ATOM     37  O   UNL     1      49.253  10.277  14.221  0.00  0.00    -0.501 OA
ATOM     38  H   UNL     1      49.979  10.573  13.654  0.00  0.00    +0.392 HD
ENDBRANCH  36  37
ENDBRANCH  32  33
ENDBRANCH  31  32
ENDBRANCH  25  26
ENDBRANCH  24  25
TORSDOF 9
ENDMDL
