MODEL 1
REMARK VINA RESULT:      -6.8      0.000      0.000
REMARK  Name = ZINC95486273
REMARK  6 active torsions:
REMARK  status: ('A' for Active; 'I' for Inactive)
REMARK    1  A    between atoms: C1_1  and  C2_2
REMARK    2  A    between atoms: C2_2  and  C21_27
REMARK    3  A    between atoms: C8_8  and  O4_24
REMARK    4  A    between atoms: C11_12  and  C14_17
REMARK    5  A    between atoms: C17_20  and  O3_23
REMARK    6  A    between atoms: O4_24  and  C20_25
REMARK                            x       y       z     vdW  Elec       q    Type
REMARK                         _______ _______ _______ _____ _____    ______ ____
ROOT
ATOM      1  C   UNL     1      41.798  19.653  19.913  0.00  0.00    +0.085 C 
ATOM      2  C   UNL     1      43.262  19.288  20.165  0.00  0.00    +0.148 C 
ATOM      3  C   UNL     1      43.638  19.670  21.598  0.00  0.00    +0.036 C 
ATOM      4  C   UNL     1      44.137  20.048  19.203  0.00  0.00    -0.069 C 
ATOM      5  C   UNL     1      45.306  19.539  18.822  0.00  0.00    +0.071 C 
ATOM      6  C   UNL     1      45.698  18.218  19.358  0.00  0.00    -0.215 A 
ATOM      7  C   UNL     1      44.707  17.413  19.945  0.00  0.00    +0.243 A 
ATOM      8  C   UNL     1      45.029  16.170  20.461  0.00  0.00    -0.133 A 
ATOM      9  C   UNL     1      46.336  15.712  20.402  0.00  0.00    +0.257 A 
ATOM     12  C   UNL     1      47.334  16.509  19.819  0.00  0.00    -0.314 A 
ATOM     13  C   UNL     1      48.724  16.042  19.758  0.00  0.00    +0.404 C 
ATOM     14  O   UNL     1      49.100  15.075  20.387  0.00  0.00    -0.429 OA
ATOM     15  C   UNL     1      49.668  16.830  18.866  0.00  0.00    +0.038 C 
ATOM     16  C   UNL     1      49.333  18.317  19.054  0.00  0.00    +0.238 C 
ATOM     25  O   UNL     1      47.966  18.540  18.708  0.00  0.00    -0.292 OA
ATOM     26  C   UNL     1      47.015  17.771  19.286  0.00  0.00    +0.263 A 
ATOM     27  O   UNL     1      43.433  17.881  19.994  0.00  0.00    -0.297 OA
ENDROOT
BRANCH  16  17
ATOM     17  C   UNL     1      50.218  19.148  18.163  0.00  0.00    -0.101 A 
ATOM     18  C   UNL     1      50.946  18.545  17.154  0.00  0.00    +0.060 A 
ATOM     19  C   UNL     1      51.759  19.306  16.337  0.00  0.00    -0.013 A 
ATOM     20  C   UNL     1      51.845  20.676  16.528  0.00  0.00    +0.116 A 
ATOM     23  C   UNL     1      51.113  21.281  17.539  0.00  0.00    -0.010 A 
ATOM     24  C   UNL     1      50.298  20.517  18.351  0.00  0.00    +0.048 A 
BRANCH  20  21
ATOM     21  O   UNL     1      52.644  21.427  15.725  0.00  0.00    -0.499 OA
ATOM     22  H   UNL     1      53.528  21.583  16.084  0.00  0.00    +0.394 HD
ENDBRANCH  20  21
ENDBRANCH  16  17
BRANCH   9  10
ATOM     10  O   UNL     1      46.650  14.493  20.907  0.00  0.00    -0.281 OA
ATOM     11  C   UNL     1      45.564  13.661  21.316  0.00  0.00    +0.252 C 
ENDBRANCH   9  10
TORSDOF 3
ENDMDL
MODEL 2
REMARK VINA RESULT:      -6.7      2.697      7.323
REMARK  Name = ZINC95486273
REMARK  6 active torsions:
REMARK  status: ('A' for Active; 'I' for Inactive)
REMARK    1  A    between atoms: C1_1  and  C2_2
REMARK    2  A    between atoms: C2_2  and  C21_27
REMARK    3  A    between atoms: C8_8  and  O4_24
REMARK    4  A    between atoms: C11_12  and  C14_17
REMARK    5  A    between atoms: C17_20  and  O3_23
REMARK    6  A    between atoms: O4_24  and  C20_25
REMARK                            x       y       z     vdW  Elec       q    Type
REMARK                         _______ _______ _______ _____ _____    ______ ____
ROOT
ATOM      1  C   UNL     1      48.786  14.811  16.878  0.00  0.00    +0.085 C 
ATOM      2  C   UNL     1      48.116  15.829  17.804  0.00  0.00    +0.148 C 
ATOM      3  C   UNL     1      47.991  15.230  19.206  0.00  0.00    +0.036 C 
ATOM      4  C   UNL     1      46.741  16.149  17.277  0.00  0.00    -0.069 C 
ATOM      5  C   UNL     1      46.196  17.339  17.521  0.00  0.00    +0.071 C 
ATOM      6  C   UNL     1      46.981  18.318  18.302  0.00  0.00    -0.215 A 
ATOM      7  C   UNL     1      48.363  18.103  18.448  0.00  0.00    +0.243 A 
ATOM      8  C   UNL     1      49.137  18.994  19.171  0.00  0.00    -0.133 A 
ATOM      9  C   UNL     1      48.551  20.105  19.758  0.00  0.00    +0.257 A 
ATOM     12  C   UNL     1      47.172  20.327  19.620  0.00  0.00    -0.314 A 
ATOM     13  C   UNL     1      46.535  21.493  20.244  0.00  0.00    +0.404 C 
ATOM     14  O   UNL     1      47.115  22.172  21.066  0.00  0.00    -0.429 OA
ATOM     15  C   UNL     1      45.114  21.806  19.809  0.00  0.00    +0.038 C 
ATOM     16  C   UNL     1      44.374  20.467  19.678  0.00  0.00    +0.238 C 
ATOM     25  O   UNL     1      45.051  19.644  18.728  0.00  0.00    -0.292 OA
ATOM     26  C   UNL     1      46.378  19.430  18.881  0.00  0.00    +0.263 A 
ATOM     27  O   UNL     1      48.917  17.009  17.866  0.00  0.00    -0.297 OA
ENDROOT
BRANCH  16  17
ATOM     17  C   UNL     1      42.963  20.716  19.212  0.00  0.00    -0.101 A 
ATOM     18  C   UNL     1      42.489  22.009  19.103  0.00  0.00    +0.060 A 
ATOM     19  C   UNL     1      41.195  22.239  18.678  0.00  0.00    -0.013 A 
ATOM     20  C   UNL     1      40.371  21.170  18.358  0.00  0.00    +0.116 A 
ATOM     23  C   UNL     1      40.849  19.872  18.467  0.00  0.00    -0.010 A 
ATOM     24  C   UNL     1      42.145  19.648  18.889  0.00  0.00    +0.048 A 
BRANCH  20  21
ATOM     21  O   UNL     1      39.098  21.393  17.939  0.00  0.00    -0.499 OA
ATOM     22  H   UNL     1      38.430  21.272  18.627  0.00  0.00    +0.394 HD
ENDBRANCH  20  21
ENDBRANCH  16  17
BRANCH   9  10
ATOM     10  O   UNL     1      49.311  20.977  20.466  0.00  0.00    -0.281 OA
ATOM     11  C   UNL     1      50.722  20.757  20.464  0.00  0.00    +0.252 C 
ENDBRANCH   9  10
TORSDOF 3
ENDMDL
MODEL 3
REMARK VINA RESULT:      -6.7      2.037      6.902
REMARK  Name = ZINC95486273
REMARK  6 active torsions:
REMARK  status: ('A' for Active; 'I' for Inactive)
REMARK    1  A    between atoms: C1_1  and  C2_2
REMARK    2  A    between atoms: C2_2  and  C21_27
REMARK    3  A    between atoms: C8_8  and  O4_24
REMARK    4  A    between atoms: C11_12  and  C14_17
REMARK    5  A    between atoms: C17_20  and  O3_23
REMARK    6  A    between atoms: O4_24  and  C20_25
REMARK                            x       y       z     vdW  Elec       q    Type
REMARK                         _______ _______ _______ _____ _____    ______ ____
ROOT
ATOM      1  C   UNL     1      52.560  21.163  19.500  0.00  0.00    +0.085 C 
ATOM      2  C   UNL     1      51.284  20.510  18.965  0.00  0.00    +0.148 C 
ATOM      3  C   UNL     1      50.962  21.087  17.585  0.00  0.00    +0.036 C 
ATOM      4  C   UNL     1      50.143  20.804  19.904  0.00  0.00    -0.069 C 
ATOM      5  C   UNL     1      49.126  19.950  20.003  0.00  0.00    +0.071 C 
ATOM      6  C   UNL     1      49.166  18.722  19.182  0.00  0.00    -0.215 A 
ATOM      7  C   UNL     1      50.393  18.334  18.617  0.00  0.00    +0.243 A 
ATOM      8  C   UNL     1      50.476  17.191  17.841  0.00  0.00    -0.133 A 
ATOM      9  C   UNL     1      49.345  16.422  17.615  0.00  0.00    +0.257 A 
ATOM     12  C   UNL     1      48.114  16.801  18.174  0.00  0.00    -0.314 A 
ATOM     13  C   UNL     1      46.906  16.003  17.935  0.00  0.00    +0.404 C 
ATOM     14  O   UNL     1      46.873  15.132  17.090  0.00  0.00    -0.429 OA
ATOM     15  C   UNL     1      45.699  16.321  18.800  0.00  0.00    +0.038 C 
ATOM     16  C   UNL     1      45.632  17.849  18.940  0.00  0.00    +0.238 C 
ATOM     25  O   UNL     1      46.844  18.324  19.525  0.00  0.00    -0.292 OA
ATOM     26  C   UNL     1      48.021  17.958  18.969  0.00  0.00    +0.263 A 
ATOM     27  O   UNL     1      51.488  19.101  18.849  0.00  0.00    -0.297 OA
ENDROOT
BRANCH  16  17
ATOM     17  C   UNL     1      44.468  18.223  19.821  0.00  0.00    -0.101 A 
ATOM     18  C   UNL     1      44.207  17.495  20.967  0.00  0.00    +0.060 A 
ATOM     19  C   UNL     1      43.140  17.835  21.776  0.00  0.00    -0.013 A 
ATOM     20  C   UNL     1      42.331  18.910  21.438  0.00  0.00    +0.116 A 
ATOM     23  C   UNL     1      42.595  19.640  20.289  0.00  0.00    -0.010 A 
ATOM     24  C   UNL     1      43.665  19.298  19.485  0.00  0.00    +0.048 A 
BRANCH  20  21
ATOM     21  O   UNL     1      41.281  19.247  22.232  0.00  0.00    -0.499 OA
ATOM     22  H   UNL     1      40.507  19.564  21.748  0.00  0.00    +0.394 HD
ENDBRANCH  20  21
ENDBRANCH  16  17
BRANCH   9  10
ATOM     10  O   UNL     1      49.428  15.302  16.855  0.00  0.00    -0.281 OA
ATOM     11  C   UNL     1      50.681  14.617  16.844  0.00  0.00    +0.252 C 
ENDBRANCH   9  10
TORSDOF 3
ENDMDL
MODEL 4
REMARK VINA RESULT:      -6.5      2.120      4.459
REMARK  Name = ZINC95486273
REMARK  6 active torsions:
REMARK  status: ('A' for Active; 'I' for Inactive)
REMARK    1  A    between atoms: C1_1  and  C2_2
REMARK    2  A    between atoms: C2_2  and  C21_27
REMARK    3  A    between atoms: C8_8  and  O4_24
REMARK    4  A    between atoms: C11_12  and  C14_17
REMARK    5  A    between atoms: C17_20  and  O3_23
REMARK    6  A    between atoms: O4_24  and  C20_25
REMARK                            x       y       z     vdW  Elec       q    Type
REMARK                         _______ _______ _______ _____ _____    ______ ____
ROOT
ATOM      1  C   UNL     1      45.262  13.447  22.304  0.00  0.00    +0.085 C 
ATOM      2  C   UNL     1      45.459  14.688  21.432  0.00  0.00    +0.148 C 
ATOM      3  C   UNL     1      45.174  14.330  19.972  0.00  0.00    +0.036 C 
ATOM      4  C   UNL     1      46.884  15.162  21.558  0.00  0.00    -0.069 C 
ATOM      5  C   UNL     1      47.173  16.452  21.392  0.00  0.00    +0.071 C 
ATOM      6  C   UNL     1      46.062  17.382  21.099  0.00  0.00    -0.215 A 
ATOM      7  C   UNL     1      44.747  16.954  21.351  0.00  0.00    +0.243 A 
ATOM      8  C   UNL     1      43.676  17.793  21.091  0.00  0.00    -0.133 A 
ATOM      9  C   UNL     1      43.896  19.061  20.579  0.00  0.00    +0.257 A 
ATOM     12  C   UNL     1      45.206  19.498  20.322  0.00  0.00    -0.314 A 
ATOM     13  C   UNL     1      45.455  20.834  19.770  0.00  0.00    +0.404 C 
ATOM     14  O   UNL     1      44.558  21.514  19.317  0.00  0.00    -0.429 OA
ATOM     15  C   UNL     1      46.893  21.323  19.794  0.00  0.00    +0.038 C 
ATOM     16  C   UNL     1      47.784  20.129  19.426  0.00  0.00    +0.238 C 
ATOM     25  O   UNL     1      47.567  19.072  20.360  0.00  0.00    -0.292 OA
ATOM     26  C   UNL     1      46.301  18.655  20.589  0.00  0.00    +0.263 A 
ATOM     27  O   UNL     1      44.552  15.708  21.852  0.00  0.00    -0.297 OA
ENDROOT
BRANCH  16  17
ATOM     17  C   UNL     1      49.231  20.548  19.469  0.00  0.00    -0.101 A 
ATOM     18  C   UNL     1      49.888  20.884  18.301  0.00  0.00    +0.060 A 
ATOM     19  C   UNL     1      51.215  21.268  18.338  0.00  0.00    -0.013 A 
ATOM     20  C   UNL     1      51.887  21.317  19.550  0.00  0.00    +0.116 A 
ATOM     23  C   UNL     1      51.226  20.982  20.722  0.00  0.00    -0.010 A 
ATOM     24  C   UNL     1      49.898  20.603  20.680  0.00  0.00    +0.048 A 
BRANCH  20  21
ATOM     21  O   UNL     1      53.192  21.695  19.589  0.00  0.00    -0.499 OA
ATOM     22  H   UNL     1      53.784  21.027  19.960  0.00  0.00    +0.394 HD
ENDBRANCH  20  21
ENDBRANCH  16  17
BRANCH   9  10
ATOM     10  O   UNL     1      42.847  19.881  20.325  0.00  0.00    -0.281 OA
ATOM     11  C   UNL     1      41.629  19.265  19.905  0.00  0.00    +0.252 C 
ENDBRANCH   9  10
TORSDOF 3
ENDMDL
MODEL 5
REMARK VINA RESULT:      -6.4      3.280      6.276
REMARK  Name = ZINC95486273
REMARK  6 active torsions:
REMARK  status: ('A' for Active; 'I' for Inactive)
REMARK    1  A    between atoms: C1_1  and  C2_2
REMARK    2  A    between atoms: C2_2  and  C21_27
REMARK    3  A    between atoms: C8_8  and  O4_24
REMARK    4  A    between atoms: C11_12  and  C14_17
REMARK    5  A    between atoms: C17_20  and  O3_23
REMARK    6  A    between atoms: O4_24  and  C20_25
REMARK                            x       y       z     vdW  Elec       q    Type
REMARK                         _______ _______ _______ _____ _____    ______ ____
ROOT
ATOM      1  C   UNL     1      49.315  14.568  16.810  0.00  0.00    +0.085 C 
ATOM      2  C   UNL     1      47.965  14.994  17.392  0.00  0.00    +0.148 C 
ATOM      3  C   UNL     1      46.845  14.235  16.677  0.00  0.00    +0.036 C 
ATOM      4  C   UNL     1      47.777  16.473  17.180  0.00  0.00    -0.069 C 
ATOM      5  C   UNL     1      47.029  17.177  18.027  0.00  0.00    +0.071 C 
ATOM      6  C   UNL     1      46.414  16.467  19.168  0.00  0.00    -0.215 A 
ATOM      7  C   UNL     1      46.910  15.197  19.512  0.00  0.00    +0.243 A 
ATOM      8  C   UNL     1      46.363  14.496  20.573  0.00  0.00    -0.133 A 
ATOM      9  C   UNL     1      45.321  15.043  21.303  0.00  0.00    +0.257 A 
ATOM     12  C   UNL     1      44.817  16.310  20.967  0.00  0.00    -0.314 A 
ATOM     13  C   UNL     1      43.706  16.899  21.724  0.00  0.00    +0.404 C 
ATOM     14  O   UNL     1      43.048  16.243  22.505  0.00  0.00    -0.429 OA
ATOM     15  C   UNL     1      43.420  18.370  21.479  0.00  0.00    +0.038 C 
ATOM     16  C   UNL     1      43.580  18.619  19.972  0.00  0.00    +0.238 C 
ATOM     25  O   UNL     1      44.902  18.261  19.572  0.00  0.00    -0.292 OA
ATOM     26  C   UNL     1      45.370  17.033  19.894  0.00  0.00    +0.263 A 
ATOM     27  O   UNL     1      47.931  14.678  18.784  0.00  0.00    -0.297 OA
ENDROOT
BRANCH  16  17
ATOM     17  C   UNL     1      43.342  20.077  19.675  0.00  0.00    -0.101 A 
ATOM     18  C   UNL     1      42.176  20.472  19.046  0.00  0.00    +0.060 A 
ATOM     19  C   UNL     1      41.957  21.808  18.771  0.00  0.00    -0.013 A 
ATOM     20  C   UNL     1      42.907  22.753  19.128  0.00  0.00    +0.116 A 
ATOM     23  C   UNL     1      44.076  22.355  19.760  0.00  0.00    -0.010 A 
ATOM     24  C   UNL     1      44.289  21.018  20.036  0.00  0.00    +0.048 A 
BRANCH  20  21
ATOM     21  O   UNL     1      42.694  24.068  18.858  0.00  0.00    -0.499 OA
ATOM     22  H   UNL     1      43.465  24.631  19.008  0.00  0.00    +0.394 HD
ENDBRANCH  20  21
ENDBRANCH  16  17
BRANCH   9  10
ATOM     10  O   UNL     1      44.786  14.355  22.343  0.00  0.00    -0.281 OA
ATOM     11  C   UNL     1      45.164  12.984  22.475  0.00  0.00    +0.252 C 
ENDBRANCH   9  10
TORSDOF 3
ENDMDL
MODEL 6
REMARK VINA RESULT:      -6.3      2.822      6.237
REMARK  Name = ZINC95486273
REMARK  6 active torsions:
REMARK  status: ('A' for Active; 'I' for Inactive)
REMARK    1  A    between atoms: C1_1  and  C2_2
REMARK    2  A    between atoms: C2_2  and  C21_27
REMARK    3  A    between atoms: C8_8  and  O4_24
REMARK    4  A    between atoms: C11_12  and  C14_17
REMARK    5  A    between atoms: C17_20  and  O3_23
REMARK    6  A    between atoms: O4_24  and  C20_25
REMARK                            x       y       z     vdW  Elec       q    Type
REMARK                         _______ _______ _______ _____ _____    ______ ____
ROOT
ATOM      1  C   UNL     1      47.482  13.110  16.190  0.00  0.00    +0.085 C 
ATOM      2  C   UNL     1      47.842  14.247  17.149  0.00  0.00    +0.148 C 
ATOM      3  C   UNL     1      48.106  13.668  18.541  0.00  0.00    +0.036 C 
ATOM      4  C   UNL     1      46.691  15.215  17.224  0.00  0.00    -0.069 C 
ATOM      5  C   UNL     1      46.919  16.499  17.498  0.00  0.00    +0.071 C 
ATOM      6  C   UNL     1      48.317  16.928  17.707  0.00  0.00    -0.215 A 
ATOM      7  C   UNL     1      49.350  16.079  17.273  0.00  0.00    +0.243 A 
ATOM      8  C   UNL     1      50.675  16.441  17.449  0.00  0.00    -0.133 A 
ATOM      9  C   UNL     1      50.990  17.646  18.056  0.00  0.00    +0.257 A 
ATOM     12  C   UNL     1      49.965  18.501  18.495  0.00  0.00    -0.314 A 
ATOM     13  C   UNL     1      50.283  19.776  19.149  0.00  0.00    +0.404 C 
ATOM     14  O   UNL     1      51.406  20.036  19.528  0.00  0.00    -0.429 OA
ATOM     15  C   UNL     1      49.135  20.754  19.327  0.00  0.00    +0.038 C 
ATOM     16  C   UNL     1      47.900  19.935  19.731  0.00  0.00    +0.238 C 
ATOM     25  O   UNL     1      47.622  18.968  18.719  0.00  0.00    -0.292 OA
ATOM     26  C   UNL     1      48.616  18.145  18.315  0.00  0.00    +0.263 A 
ATOM     27  O   UNL     1      49.021  14.903  16.681  0.00  0.00    -0.297 OA
ENDROOT
BRANCH  16  17
ATOM     17  C   UNL     1      46.716  20.853  19.888  0.00  0.00    -0.101 A 
ATOM     18  C   UNL     1      46.723  21.829  20.867  0.00  0.00    +0.060 A 
ATOM     19  C   UNL     1      45.638  22.671  21.013  0.00  0.00    -0.013 A 
ATOM     20  C   UNL     1      44.541  22.538  20.176  0.00  0.00    +0.116 A 
ATOM     23  C   UNL     1      44.536  21.559  19.193  0.00  0.00    -0.010 A 
ATOM     24  C   UNL     1      45.625  20.722  19.048  0.00  0.00    +0.048 A 
BRANCH  20  21
ATOM     21  O   UNL     1      43.472  23.365  20.318  0.00  0.00    -0.499 OA
ATOM     22  H   UNL     1      42.778  23.017  20.893  0.00  0.00    +0.394 HD
ENDBRANCH  20  21
ENDBRANCH  16  17
BRANCH   9  10
ATOM     10  O   UNL     1      52.288  18.000  18.228  0.00  0.00    -0.281 OA
ATOM     11  C   UNL     1      53.114  17.097  18.964  0.00  0.00    +0.252 C 
ENDBRANCH   9  10
TORSDOF 3
ENDMDL
MODEL 7
REMARK VINA RESULT:      -6.0      4.095      4.964
REMARK  Name = ZINC95486273
REMARK  6 active torsions:
REMARK  status: ('A' for Active; 'I' for Inactive)
REMARK    1  A    between atoms: C1_1  and  C2_2
REMARK    2  A    between atoms: C2_2  and  C21_27
REMARK    3  A    between atoms: C8_8  and  O4_24
REMARK    4  A    between atoms: C11_12  and  C14_17
REMARK    5  A    between atoms: C17_20  and  O3_23
REMARK    6  A    between atoms: O4_24  and  C20_25
REMARK                            x       y       z     vdW  Elec       q    Type
REMARK                         _______ _______ _______ _____ _____    ______ ____
ROOT
ATOM      1  C   UNL     1      45.557  12.204  16.953  0.00  0.00    +0.085 C 
ATOM      2  C   UNL     1      46.622  13.065  17.636  0.00  0.00    +0.148 C 
ATOM      3  C   UNL     1      46.154  13.420  19.049  0.00  0.00    +0.036 C 
ATOM      4  C   UNL     1      46.818  14.332  16.846  0.00  0.00    -0.069 C 
ATOM      5  C   UNL     1      47.996  14.953  16.866  0.00  0.00    +0.071 C 
ATOM      6  C   UNL     1      49.085  14.354  17.668  0.00  0.00    -0.215 A 
ATOM      7  C   UNL     1      48.957  13.015  18.075  0.00  0.00    +0.243 A 
ATOM      8  C   UNL     1      49.951  12.414  18.828  0.00  0.00    -0.133 A 
ATOM      9  C   UNL     1      51.081  13.133  19.185  0.00  0.00    +0.257 A 
ATOM     12  C   UNL     1      51.218  14.472  18.784  0.00  0.00    -0.314 A 
ATOM     13  C   UNL     1      52.404  15.249  19.163  0.00  0.00    +0.404 C 
ATOM     14  O   UNL     1      53.187  14.851  20.000  0.00  0.00    -0.429 OA
ATOM     15  C   UNL     1      52.600  16.579  18.455  0.00  0.00    +0.038 C 
ATOM     16  C   UNL     1      51.218  17.237  18.335  0.00  0.00    +0.238 C 
ATOM     25  O   UNL     1      50.344  16.373  17.610  0.00  0.00    -0.292 OA
ATOM     26  C   UNL     1      50.215  15.089  18.014  0.00  0.00    +0.263 A 
ATOM     27  O   UNL     1      47.842  12.328  17.716  0.00  0.00    -0.297 OA
ENDROOT
BRANCH  16  17
ATOM     17  C   UNL     1      51.348  18.549  17.606  0.00  0.00    -0.101 A 
ATOM     18  C   UNL     1      51.822  18.574  16.308  0.00  0.00    +0.060 A 
ATOM     19  C   UNL     1      51.942  19.776  15.638  0.00  0.00    -0.013 A 
ATOM     20  C   UNL     1      51.586  20.959  16.268  0.00  0.00    +0.116 A 
ATOM     23  C   UNL     1      51.109  20.932  17.570  0.00  0.00    -0.010 A 
ATOM     24  C   UNL     1      50.986  19.727  18.235  0.00  0.00    +0.048 A 
BRANCH  20  21
ATOM     21  O   UNL     1      51.703  22.143  15.611  0.00  0.00    -0.499 OA
ATOM     22  H   UNL     1      51.408  22.908  16.122  0.00  0.00    +0.394 HD
ENDBRANCH  20  21
ENDBRANCH  16  17
BRANCH   9  10
ATOM     10  O   UNL     1      52.055  12.543  19.922  0.00  0.00    -0.281 OA
ATOM     11  C   UNL     1      51.645  11.543  20.856  0.00  0.00    +0.252 C 
ENDBRANCH   9  10
TORSDOF 3
ENDMDL
MODEL 8
REMARK VINA RESULT:      -5.8      1.578      6.609
REMARK  Name = ZINC95486273
REMARK  6 active torsions:
REMARK  status: ('A' for Active; 'I' for Inactive)
REMARK    1  A    between atoms: C1_1  and  C2_2
REMARK    2  A    between atoms: C2_2  and  C21_27
REMARK    3  A    between atoms: C8_8  and  O4_24
REMARK    4  A    between atoms: C11_12  and  C14_17
REMARK    5  A    between atoms: C17_20  and  O3_23
REMARK    6  A    between atoms: O4_24  and  C20_25
REMARK                            x       y       z     vdW  Elec       q    Type
REMARK                         _______ _______ _______ _____ _____    ______ ____
ROOT
ATOM      1  C   UNL     1      52.420  20.901  18.668  0.00  0.00    +0.085 C 
ATOM      2  C   UNL     1      51.200  19.990  18.529  0.00  0.00    +0.148 C 
ATOM      3  C   UNL     1      51.162  19.410  17.113  0.00  0.00    +0.036 C 
ATOM      4  C   UNL     1      49.949  20.794  18.770  0.00  0.00    -0.069 C 
ATOM      5  C   UNL     1      48.860  20.201  19.255  0.00  0.00    +0.071 C 
ATOM      6  C   UNL     1      48.930  18.755  19.555  0.00  0.00    -0.215 A 
ATOM      7  C   UNL     1      50.196  18.152  19.654  0.00  0.00    +0.243 A 
ATOM      8  C   UNL     1      50.308  16.801  19.932  0.00  0.00    -0.133 A 
ATOM      9  C   UNL     1      49.169  16.033  20.113  0.00  0.00    +0.257 A 
ATOM     12  C   UNL     1      47.899  16.625  20.015  0.00  0.00    -0.314 A 
ATOM     13  C   UNL     1      46.683  15.823  20.195  0.00  0.00    +0.404 C 
ATOM     14  O   UNL     1      46.716  14.610  20.214  0.00  0.00    -0.429 OA
ATOM     15  C   UNL     1      45.381  16.588  20.355  0.00  0.00    +0.038 C 
ATOM     16  C   UNL     1      45.423  17.765  19.371  0.00  0.00    +0.238 C 
ATOM     25  O   UNL     1      46.557  18.582  19.658  0.00  0.00    -0.292 OA
ATOM     26  C   UNL     1      47.775  17.999  19.739  0.00  0.00    +0.263 A 
ATOM     27  O   UNL     1      51.299  18.921  19.471  0.00  0.00    -0.297 OA
ENDROOT
BRANCH  16  17
ATOM     17  C   UNL     1      44.166  18.584  19.512  0.00  0.00    -0.101 A 
ATOM     18  C   UNL     1      43.933  19.645  18.657  0.00  0.00    +0.060 A 
ATOM     19  C   UNL     1      42.782  20.397  18.786  0.00  0.00    -0.013 A 
ATOM     20  C   UNL     1      41.858  20.087  19.772  0.00  0.00    +0.116 A 
ATOM     23  C   UNL     1      42.093  19.021  20.628  0.00  0.00    -0.010 A 
ATOM     24  C   UNL     1      43.243  18.269  20.493  0.00  0.00    +0.048 A 
BRANCH  20  21
ATOM     21  O   UNL     1      40.724  20.826  19.901  0.00  0.00    -0.499 OA
ATOM     22  H   UNL     1      40.780  21.518  20.574  0.00  0.00    +0.394 HD
ENDBRANCH  20  21
ENDBRANCH  16  17
BRANCH   9  10
ATOM     10  O   UNL     1      49.280  14.709  20.386  0.00  0.00    -0.281 OA
ATOM     11  C   UNL     1      50.182  13.954  19.576  0.00  0.00    +0.252 C 
ENDBRANCH   9  10
TORSDOF 3
ENDMDL
MODEL 9
REMARK VINA RESULT:      -5.7      2.301      7.212
REMARK  Name = ZINC95486273
REMARK  6 active torsions:
REMARK  status: ('A' for Active; 'I' for Inactive)
REMARK    1  A    between atoms: C1_1  and  C2_2
REMARK    2  A    between atoms: C2_2  and  C21_27
REMARK    3  A    between atoms: C8_8  and  O4_24
REMARK    4  A    between atoms: C11_12  and  C14_17
REMARK    5  A    between atoms: C17_20  and  O3_23
REMARK    6  A    between atoms: O4_24  and  C20_25
REMARK                            x       y       z     vdW  Elec       q    Type
REMARK                         _______ _______ _______ _____ _____    ______ ____
ROOT
ATOM      1  C   UNL     1      48.435  12.478  16.324  0.00  0.00    +0.085 C 
ATOM      2  C   UNL     1      48.316  13.659  17.290  0.00  0.00    +0.148 C 
ATOM      3  C   UNL     1      49.080  13.337  18.577  0.00  0.00    +0.036 C 
ATOM      4  C   UNL     1      46.864  13.887  17.619  0.00  0.00    -0.069 C 
ATOM      5  C   UNL     1      46.438  15.107  17.942  0.00  0.00    +0.071 C 
ATOM      6  C   UNL     1      47.425  16.208  17.952  0.00  0.00    -0.215 A 
ATOM      7  C   UNL     1      48.653  16.012  17.298  0.00  0.00    +0.243 A 
ATOM      8  C   UNL     1      49.606  17.015  17.282  0.00  0.00    -0.133 A 
ATOM      9  C   UNL     1      49.353  18.223  17.914  0.00  0.00    +0.257 A 
ATOM     12  C   UNL     1      48.130  18.428  18.572  0.00  0.00    -0.314 A 
ATOM     13  C   UNL     1      47.851  19.698  19.254  0.00  0.00    +0.404 C 
ATOM     14  O   UNL     1      48.724  20.514  19.464  0.00  0.00    -0.429 OA
ATOM     15  C   UNL     1      46.414  19.937  19.684  0.00  0.00    +0.038 C 
ATOM     16  C   UNL     1      45.874  18.605  20.224  0.00  0.00    +0.238 C 
ATOM     25  O   UNL     1      45.964  17.611  19.204  0.00  0.00    -0.292 OA
ATOM     26  C   UNL     1      47.152  17.416  18.588  0.00  0.00    +0.263 A 
ATOM     27  O   UNL     1      48.882  14.822  16.686  0.00  0.00    -0.297 OA
ENDROOT
BRANCH  16  17
ATOM     17  C   UNL     1      44.435  18.774  20.635  0.00  0.00    -0.101 A 
ATOM     18  C   UNL     1      43.497  19.191  19.709  0.00  0.00    +0.060 A 
ATOM     19  C   UNL     1      42.177  19.348  20.084  0.00  0.00    -0.013 A 
ATOM     20  C   UNL     1      41.792  19.086  21.391  0.00  0.00    +0.116 A 
ATOM     23  C   UNL     1      42.734  18.667  22.318  0.00  0.00    -0.010 A 
ATOM     24  C   UNL     1      44.052  18.507  21.937  0.00  0.00    +0.048 A 
BRANCH  20  21
ATOM     21  O   UNL     1      40.493  19.241  21.762  0.00  0.00    -0.499 OA
ATOM     22  H   UNL     1      39.935  19.641  21.082  0.00  0.00    +0.394 HD
ENDBRANCH  20  21
ENDBRANCH  16  17
BRANCH   9  10
ATOM     10  O   UNL     1      50.288  19.205  17.898  0.00  0.00    -0.281 OA
ATOM     11  C   UNL     1      51.611  18.835  17.509  0.00  0.00    +0.252 C 
ENDBRANCH   9  10
TORSDOF 3
ENDMDL
