MODEL 1
REMARK VINA RESULT:      -5.8      0.000      0.000
REMARK  Name = ZINC95486188
REMARK  20 active torsions:
REMARK  status: ('A' for Active; 'I' for Inactive)
REMARK    1  A    between atoms: C1_1  and  C2_2
REMARK    2  A    between atoms: C5_5  and  C37_48
REMARK    3  A    between atoms: C7_7  and  C13_15
REMARK    4  A    between atoms: C8_8  and  O2_14
REMARK    5  A    between atoms: C10_10  and  O1_12
REMARK    6  A    between atoms: O1_12  and  C12_13
REMARK    7  A    between atoms: C15_17  and  C25_29
REMARK    8  A    between atoms: C18_20  and  C24_28
REMARK    9  A    between atoms: C20_22  and  O4_26
REMARK   10  A    between atoms: C22_24  and  O3_25
REMARK   11  A    between atoms: O4_26  and  C23_27
REMARK   12  A    between atoms: C26_30  and  O6_47
REMARK   13  A    between atoms: C28_32  and  O5_46
REMARK   14  A    between atoms: C32_38  and  C36_45
REMARK   15  A    between atoms: N1_40  and  C35_44
REMARK   16  A    between atoms: C33_41  and  C34_43
REMARK   17  A    between atoms: C41_52  and  O8_55
REMARK   18  A    between atoms: C42_53  and  O7_54
REMARK   19  A    between atoms: C43_56  and  C47_63
REMARK   20  A    between atoms: C44_59  and  C46_62
REMARK                            x       y       z     vdW  Elec       q    Type
REMARK                         _______ _______ _______ _____ _____    ______ ____
ROOT
ATOM      1  C   UNL     1      47.658  22.790  22.505  0.00  0.00    +0.096 C 
ATOM      2  C   UNL     1      48.374  21.556  22.021  0.00  0.00    -0.007 A 
ATOM      3  C   UNL     1      47.653  20.449  21.689  0.00  0.00    -0.061 A 
ATOM      4  C   UNL     1      48.308  19.295  21.236  0.00  0.00    +0.027 A 
ATOM      5  C   UNL     1      47.578  18.133  20.884  0.00  0.00    -0.089 A 
ATOM     24  C   UNL     1      48.249  17.010  20.440  0.00  0.00    +0.082 A 
ATOM     25  C   UNL     1      49.645  17.007  20.335  0.00  0.00    -0.097 A 
ATOM     59  C   UNL     1      50.382  18.135  20.674  0.00  0.00    +0.204 A 
ATOM     62  C   UNL     1      49.720  19.292  21.128  0.00  0.00    -0.109 A 
ATOM     63  C   UNL     1      50.442  20.450  21.478  0.00  0.00    +0.176 A 
ATOM     66  C   UNL     1      49.761  21.567  21.914  0.00  0.00    -0.099 A 
ENDROOT
BRANCH   5   6
ATOM      6  C   UNL     1      46.100  18.122  20.992  0.00  0.00    -0.026 A 
ATOM      7  C   UNL     1      45.347  19.125  20.374  0.00  0.00    -0.073 A 
ATOM      8  C   UNL     1      43.975  19.117  20.476  0.00  0.00    -0.123 A 
ATOM      9  C   UNL     1      43.126  20.182  19.834  0.00  0.00    +0.233 C 
ATOM     10  C   UNL     1      41.888  19.535  19.211  0.00  0.00    +0.098 C 
ATOM     11  N   UNL     1      43.880  20.884  18.791  0.00  0.00    -0.502 N 
ATOM     12  H   UNL     1      43.335  21.658  18.443  0.00  0.00    +0.433 HD
ATOM     13  H   UNL     1      44.085  20.247  18.035  0.00  0.00    +0.421 HD
ATOM     14  C   UNL     1      45.138  21.386  19.366  0.00  0.00    +0.173 C 
ATOM     15  C   UNL     1      45.790  22.371  18.392  0.00  0.00    +0.095 C 
ATOM     16  C   UNL     1      43.341  18.108  21.189  0.00  0.00    +0.039 A 
ATOM     17  C   UNL     1      44.075  17.109  21.805  0.00  0.00    +0.102 A 
ATOM     20  C   UNL     1      46.072  20.199  19.603  0.00  0.00    +0.131 C 
ATOM     21  C   UNL     1      45.461  17.108  21.706  0.00  0.00    +0.128 A 
BRANCH  17  18
ATOM     18  O   UNL     1      43.441  16.128  22.502  0.00  0.00    -0.482 OA
ATOM     19  H   UNL     1      43.005  15.468  21.944  0.00  0.00    +0.404 HD
ENDBRANCH  17  18
BRANCH  21  22
ATOM     22  O   UNL     1      46.189  16.127  22.305  0.00  0.00    -0.479 OA
ATOM     23  H   UNL     1      46.967  15.852  21.800  0.00  0.00    +0.406 HD
ENDBRANCH  21  22
ENDBRANCH   5   6
BRANCH  25  26
ATOM     26  C   UNL     1      50.343  15.790  19.858  0.00  0.00    -0.106 A 
ATOM     27  C   UNL     1      50.031  15.270  18.597  0.00  0.00    +0.047 A 
ATOM     28  C   UNL     1      50.671  14.132  18.126  0.00  0.00    -0.034 A 
ATOM     47  C   UNL     1      51.677  13.483  18.969  0.00  0.00    +0.026 A 
ATOM     48  C   UNL     1      52.351  12.334  18.538  0.00  0.00    -0.032 A 
ATOM     49  C   UNL     1      53.285  11.751  19.343  0.00  0.00    -0.020 A 
ATOM     50  C   UNL     1      54.003  10.513  18.871  0.00  0.00    +0.095 C 
ATOM     51  C   UNL     1      53.583  12.282  20.595  0.00  0.00    -0.096 A 
ATOM     52  C   UNL     1      52.941  13.410  21.052  0.00  0.00    +0.167 A 
ATOM     55  C   UNL     1      51.972  14.033  20.239  0.00  0.00    -0.108 A 
ATOM     56  C   UNL     1      51.299  15.192  20.668  0.00  0.00    +0.194 A 
BRANCH  28  29
ATOM     29  C   UNL     1      50.343  13.586  16.804  0.00  0.00    -0.185 C 
ATOM     30  C   UNL     1      51.119  13.868  15.724  0.00  0.00    +0.181 C 
ATOM     33  C   UNL     1      50.752  13.348  14.404  0.00  0.00    -0.138 C 
ATOM     34  C   UNL     1      49.498  12.923  14.172  0.00  0.00    +0.139 C 
ATOM     37  C   UNL     1      48.482  13.018  15.272  0.00  0.00    +0.061 C 
ATOM     38  C   UNL     1      47.319  12.051  15.071  0.00  0.00    +0.188 C 
ATOM     39  C   UNL     1      47.836  10.612  15.121  0.00  0.00    +0.095 C 
ATOM     40  N   UNL     1      46.334  12.260  16.144  0.00  0.00    -0.379 N 
ATOM     41  H   UNL     1      46.028  13.221  16.136  0.00  0.00    +0.416 HD
ATOM     42  C   UNL     1      45.178  11.381  15.921  0.00  0.00    +0.323 C 
ATOM     43  C   UNL     1      46.929  11.952  17.448  0.00  0.00    +0.156 C 
ATOM     44  C   UNL     1      45.872  12.138  18.538  0.00  0.00    +0.087 C 
ATOM     45  C   UNL     1      48.115  12.884  17.728  0.00  0.00    +0.089 C 
ATOM     46  C   UNL     1      49.146  12.699  16.616  0.00  0.00    +0.075 C 
BRANCH  30  31
ATOM     31  O   UNL     1      52.233  14.632  15.868  0.00  0.00    -0.456 OA
ATOM     32  H   UNL     1      52.901  14.248  16.452  0.00  0.00    +0.402 HD
ENDBRANCH  30  31
BRANCH  34  35
ATOM     35  O   UNL     1      49.156  12.417  12.964  0.00  0.00    -0.473 OA
ATOM     36  H   UNL     1      48.394  11.822  12.988  0.00  0.00    +0.418 HD
ENDBRANCH  34  35
ENDBRANCH  28  29
BRANCH  52  53
ATOM     53  O   UNL     1      53.239  13.920  22.275  0.00  0.00    -0.293 OA
ATOM     54  C   UNL     1      54.593  14.317  22.500  0.00  0.00    +0.247 C 
ENDBRANCH  52  53
BRANCH  56  57
ATOM     57  O   UNL     1      51.581  15.726  21.885  0.00  0.00    -0.465 OA
ATOM     58  H   UNL     1      52.285  16.389  21.869  0.00  0.00    +0.389 HD
ENDBRANCH  56  57
ENDBRANCH  25  26
BRANCH  59  60
ATOM     60  O   UNL     1      51.735  18.122  20.568  0.00  0.00    -0.461 OA
ATOM     61  H   UNL     1      52.140  19.000  20.588  0.00  0.00    +0.391 HD
ENDBRANCH  59  60
BRANCH  63  64
ATOM     64  O   UNL     1      51.797  20.469  21.382  0.00  0.00    -0.290 OA
ATOM     65  C   UNL     1      52.380  21.540  20.638  0.00  0.00    +0.251 C 
ENDBRANCH  63  64
TORSDOF 11
ENDMDL
MODEL 2
REMARK VINA RESULT:      -2.9      2.829      9.535
REMARK  Name = ZINC95486188
REMARK  20 active torsions:
REMARK  status: ('A' for Active; 'I' for Inactive)
REMARK    1  A    between atoms: C1_1  and  C2_2
REMARK    2  A    between atoms: C5_5  and  C37_48
REMARK    3  A    between atoms: C7_7  and  C13_15
REMARK    4  A    between atoms: C8_8  and  O2_14
REMARK    5  A    between atoms: C10_10  and  O1_12
REMARK    6  A    between atoms: O1_12  and  C12_13
REMARK    7  A    between atoms: C15_17  and  C25_29
REMARK    8  A    between atoms: C18_20  and  C24_28
REMARK    9  A    between atoms: C20_22  and  O4_26
REMARK   10  A    between atoms: C22_24  and  O3_25
REMARK   11  A    between atoms: O4_26  and  C23_27
REMARK   12  A    between atoms: C26_30  and  O6_47
REMARK   13  A    between atoms: C28_32  and  O5_46
REMARK   14  A    between atoms: C32_38  and  C36_45
REMARK   15  A    between atoms: N1_40  and  C35_44
REMARK   16  A    between atoms: C33_41  and  C34_43
REMARK   17  A    between atoms: C41_52  and  O8_55
REMARK   18  A    between atoms: C42_53  and  O7_54
REMARK   19  A    between atoms: C43_56  and  C47_63
REMARK   20  A    between atoms: C44_59  and  C46_62
REMARK                            x       y       z     vdW  Elec       q    Type
REMARK                         _______ _______ _______ _____ _____    ______ ____
ROOT
ATOM      1  C   UNL     1      54.240  16.506  14.157  0.00  0.00    +0.096 C 
ATOM      2  C   UNL     1      53.041  16.875  14.991  0.00  0.00    -0.007 A 
ATOM      3  C   UNL     1      52.410  15.913  15.721  0.00  0.00    -0.061 A 
ATOM      4  C   UNL     1      51.293  16.244  16.502  0.00  0.00    +0.027 A 
ATOM      5  C   UNL     1      50.623  15.259  17.270  0.00  0.00    -0.089 A 
ATOM     24  C   UNL     1      49.526  15.613  18.030  0.00  0.00    +0.082 A 
ATOM     25  C   UNL     1      49.068  16.936  18.050  0.00  0.00    -0.097 A 
ATOM     59  C   UNL     1      49.709  17.918  17.306  0.00  0.00    +0.204 A 
ATOM     62  C   UNL     1      50.830  17.582  16.524  0.00  0.00    -0.109 A 
ATOM     63  C   UNL     1      51.500  18.557  15.759  0.00  0.00    +0.176 A 
ATOM     66  C   UNL     1      52.598  18.194  15.009  0.00  0.00    -0.099 A 
ENDROOT
BRANCH   5   6
ATOM      6  C   UNL     1      51.097  13.856  17.256  0.00  0.00    -0.026 A 
ATOM      7  C   UNL     1      52.098  13.448  18.143  0.00  0.00    -0.073 A 
ATOM      8  C   UNL     1      52.540  12.145  18.130  0.00  0.00    -0.123 A 
ATOM      9  C   UNL     1      53.622  11.665  19.061  0.00  0.00    +0.233 C 
ATOM     10  C   UNL     1      53.256  10.277  19.588  0.00  0.00    +0.098 C 
ATOM     11  N   UNL     1      53.775  12.586  20.192  0.00  0.00    -0.502 N 
ATOM     12  H   UNL     1      54.568  12.307  20.749  0.00  0.00    +0.433 HD
ATOM     13  H   UNL     1      52.940  12.567  20.758  0.00  0.00    +0.421 HD
ATOM     14  C   UNL     1      53.989  13.947  19.676  0.00  0.00    +0.173 C 
ATOM     15  C   UNL     1      54.450  14.861  20.813  0.00  0.00    +0.095 C 
ATOM     16  C   UNL     1      51.987  11.237  17.237  0.00  0.00    +0.039 A 
ATOM     17  C   UNL     1      50.995  11.627  16.354  0.00  0.00    +0.102 A 
ATOM     20  C   UNL     1      52.669  14.462  19.102  0.00  0.00    +0.131 C 
ATOM     21  C   UNL     1      50.541  12.941  16.362  0.00  0.00    +0.128 A 
BRANCH  17  18
ATOM     18  O   UNL     1      50.463  10.728  15.484  0.00  0.00    -0.482 OA
ATOM     19  H   UNL     1      51.044   9.978  15.290  0.00  0.00    +0.404 HD
ENDBRANCH  17  18
BRANCH  21  22
ATOM     22  O   UNL     1      49.564  13.332  15.500  0.00  0.00    -0.479 OA
ATOM     23  H   UNL     1      48.856  13.843  15.915  0.00  0.00    +0.406 HD
ENDBRANCH  21  22
ENDBRANCH   5   6
BRANCH  25  26
ATOM     26  C   UNL     1      47.887  17.292  18.872  0.00  0.00    -0.106 A 
ATOM     27  C   UNL     1      47.629  18.637  19.155  0.00  0.00    +0.047 A 
ATOM     28  C   UNL     1      46.529  18.998  19.922  0.00  0.00    -0.034 A 
ATOM     47  C   UNL     1      45.644  17.949  20.431  0.00  0.00    +0.026 A 
ATOM     48  C   UNL     1      44.522  18.262  21.208  0.00  0.00    -0.032 A 
ATOM     49  C   UNL     1      43.714  17.264  21.669  0.00  0.00    -0.020 A 
ATOM     50  C   UNL     1      42.509  17.612  22.505  0.00  0.00    +0.095 C 
ATOM     51  C   UNL     1      43.986  15.931  21.378  0.00  0.00    -0.096 A 
ATOM     52  C   UNL     1      45.080  15.585  20.618  0.00  0.00    +0.167 A 
ATOM     55  C   UNL     1      45.931  16.597  20.128  0.00  0.00    -0.108 A 
ATOM     56  C   UNL     1      47.056  16.284  19.342  0.00  0.00    +0.194 A 
BRANCH  28  29
ATOM     29  C   UNL     1      46.259  20.409  20.219  0.00  0.00    -0.185 C 
ATOM     30  C   UNL     1      47.050  21.101  21.082  0.00  0.00    +0.181 C 
ATOM     33  C   UNL     1      46.738  22.498  21.399  0.00  0.00    -0.138 C 
ATOM     34  C   UNL     1      45.510  22.987  21.156  0.00  0.00    +0.139 C 
ATOM     37  C   UNL     1      44.463  22.074  20.587  0.00  0.00    +0.061 C 
ATOM     38  C   UNL     1      43.348  22.842  19.884  0.00  0.00    +0.188 C 
ATOM     39  C   UNL     1      43.923  23.595  18.683  0.00  0.00    +0.095 C 
ATOM     40  N   UNL     1      42.327  21.886  19.424  0.00  0.00    -0.379 N 
ATOM     41  H   UNL     1      41.981  21.360  20.212  0.00  0.00    +0.416 HD
ATOM     42  C   UNL     1      41.216  22.621  18.805  0.00  0.00    +0.323 C 
ATOM     43  C   UNL     1      42.902  20.963  18.441  0.00  0.00    +0.156 C 
ATOM     44  C   UNL     1      41.810  20.010  17.951  0.00  0.00    +0.087 C 
ATOM     45  C   UNL     1      44.040  20.149  19.071  0.00  0.00    +0.089 C 
ATOM     46  C   UNL     1      45.105  21.122  19.573  0.00  0.00    +0.075 C 
BRANCH  30  31
ATOM     31  O   UNL     1      48.126  20.499  21.650  0.00  0.00    -0.456 OA
ATOM     32  H   UNL     1      48.016  20.303  22.591  0.00  0.00    +0.402 HD
ENDBRANCH  30  31
BRANCH  34  35
ATOM     35  O   UNL     1      45.220  24.282  21.422  0.00  0.00    -0.473 OA
ATOM     36  H   UNL     1      44.373  24.411  21.870  0.00  0.00    +0.418 HD
ENDBRANCH  34  35
ENDBRANCH  28  29
BRANCH  52  53
ATOM     53  O   UNL     1      45.337  14.280  20.340  0.00  0.00    -0.293 OA
ATOM     54  C   UNL     1      45.281  13.361  21.433  0.00  0.00    +0.247 C 
ENDBRANCH  52  53
BRANCH  56  57
ATOM     57  O   UNL     1      47.332  14.988  19.045  0.00  0.00    -0.465 OA
ATOM     58  H   UNL     1      47.871  14.873  18.250  0.00  0.00    +0.389 HD
ENDBRANCH  56  57
ENDBRANCH  25  26
BRANCH  59  60
ATOM     60  O   UNL     1      49.257  19.197  17.332  0.00  0.00    -0.461 OA
ATOM     61  H   UNL     1      49.919  19.855  17.081  0.00  0.00    +0.391 HD
ENDBRANCH  59  60
BRANCH  63  64
ATOM     64  O   UNL     1      51.072  19.846  15.766  0.00  0.00    -0.290 OA
ATOM     65  C   UNL     1      51.997  20.835  16.223  0.00  0.00    +0.251 C 
ENDBRANCH  63  64
TORSDOF 11
ENDMDL
