MODEL 1
REMARK VINA RESULT:      -5.8      0.000      0.000
REMARK  Name = ZINC95485886
REMARK  17 active torsions:
REMARK  status: ('A' for Active; 'I' for Inactive)
REMARK    1  A    between atoms: C1_1  and  N1_2
REMARK    2  A    between atoms: C6_7  and  O6_50
REMARK    3  A    between atoms: C7_8  and  C18_21
REMARK    4  A    between atoms: C10_11  and  C11_13
REMARK    5  A    between atoms: C11_13  and  C12_14
REMARK    6  A    between atoms: C17_19  and  O1_20
REMARK    7  A    between atoms: C18_21  and  C19_22
REMARK    8  A    between atoms: C23_26  and  O3_30
REMARK    9  A    between atoms: C24_27  and  O2_28
REMARK   10  A    between atoms: O2_28  and  C25_29
REMARK   11  A    between atoms: O3_30  and  C26_31
REMARK   12  A    between atoms: C30_36  and  O5_48
REMARK   13  A    between atoms: C31_37  and  O4_46
REMARK   14  A    between atoms: N2_44  and  C37_45
REMARK   15  A    between atoms: O4_46  and  C38_47
REMARK   16  A    between atoms: O5_48  and  C39_49
REMARK   17  A    between atoms: O6_50  and  C40_51
REMARK                            x       y       z     vdW  Elec       q    Type
REMARK                         _______ _______ _______ _____ _____    ______ ____
ROOT
ATOM     12  C   UNL     1      49.286  14.797  19.347  0.00  0.00    -0.061 A 
ATOM     13  C   UNL     1      50.518  15.452  19.372  0.00  0.00    -0.051 A 
ATOM     14  C   UNL     1      51.316  15.459  18.263  0.00  0.00    -0.108 A 
ATOM     15  C   UNL     1      52.667  16.089  18.158  0.00  0.00    +0.301 C 
ATOM     16  C   UNL     1      53.617  15.757  19.257  0.00  0.00    -0.136 A 
ATOM     17  C   UNL     1      54.731  14.966  19.087  0.00  0.00    +0.015 A 
ATOM     18  C   UNL     1      55.575  14.731  20.162  0.00  0.00    +0.115 A 
ATOM     21  C   UNL     1      55.302  15.292  21.406  0.00  0.00    +0.131 A 
ATOM     24  C   UNL     1      54.170  16.081  21.575  0.00  0.00    -0.005 A 
ATOM     25  C   UNL     1      53.336  16.297  20.508  0.00  0.00    -0.072 A 
ATOM     26  C   UNL     1      52.057  17.076  20.584  0.00  0.00    +0.070 C 
ATOM     27  C   UNL     1      51.993  18.067  19.433  0.00  0.00    +0.260 C 
ATOM     28  N   UNL     1      52.463  17.551  18.172  0.00  0.00    -0.376 N 
ATOM     29  H   UNL     1      53.336  18.002  17.944  0.00  0.00    +0.425 HD
ATOM     30  C   UNL     1      51.473  17.899  17.145  0.00  0.00    +0.319 C 
ATOM     31  C   UNL     1      50.868  14.813  17.104  0.00  0.00    -0.057 A 
ATOM     32  C   UNL     1      49.651  14.166  17.070  0.00  0.00    +0.116 A 
ATOM     35  C   UNL     1      50.885  16.131  20.651  0.00  0.00    +0.109 C 
ATOM     36  C   UNL     1      48.850  14.149  18.208  0.00  0.00    +0.123 A 
ENDROOT
BRANCH  18  19
ATOM     19  O   UNL     1      56.677  13.949  20.000  0.00  0.00    -0.295 OA
ATOM     20  C   UNL     1      56.472  12.535  19.987  0.00  0.00    +0.249 C 
ENDBRANCH  18  19
BRANCH  21  22
ATOM     22  O   UNL     1      56.137  15.067  22.454  0.00  0.00    -0.293 OA
ATOM     23  C   UNL     1      57.338  15.842  22.505  0.00  0.00    +0.248 C 
ENDBRANCH  21  22
BRANCH  32  33
ATOM     33  O   UNL     1      49.239  13.545  15.932  0.00  0.00    -0.297 OA
ATOM     34  C   UNL     1      50.051  12.476  15.445  0.00  0.00    +0.245 C 
ENDBRANCH  32  33
BRANCH  36  37
ATOM     37  O   UNL     1      47.652  13.506  18.198  0.00  0.00    -0.291 OA
ATOM     38  C   UNL     1      47.674  12.090  18.387  0.00  0.00    +0.225 C 
ENDBRANCH  36  37
BRANCH  12  11
ATOM     11  C   UNL     1      48.422  14.793  20.580  0.00  0.00    +0.147 C 
BRANCH  11  10
ATOM      1  C   UNL     1      46.136  21.802  20.124  0.00  0.00    +0.192 C 
ATOM      2  N   UNL     1      45.805  20.385  20.326  0.00  0.00    -0.522 NA
ATOM      3  C   UNL     1      44.672  19.982  19.478  0.00  0.00    +0.172 C 
ATOM      4  C   UNL     1      44.142  18.639  19.983  0.00  0.00    +0.087 C 
ATOM      5  C   UNL     1      45.278  17.660  20.134  0.00  0.00    -0.015 A 
ATOM      6  C   UNL     1      44.978  16.311  20.231  0.00  0.00    -0.082 A 
ATOM      7  C   UNL     1      45.991  15.378  20.375  0.00  0.00    +0.146 A 
ATOM     10  C   UNL     1      47.312  15.799  20.421  0.00  0.00    -0.122 A 
ATOM     39  C   UNL     1      47.607  17.144  20.321  0.00  0.00    +0.048 A 
ATOM     40  C   UNL     1      46.592  18.077  20.174  0.00  0.00    -0.112 A 
ATOM     41  C   UNL     1      46.968  19.531  20.061  0.00  0.00    +0.191 C 
BRANCH   7   8
ATOM      8  O   UNL     1      45.694  14.055  20.471  0.00  0.00    -0.281 OA
ATOM      9  C   UNL     1      45.366  13.557  21.769  0.00  0.00    +0.232 C 
ENDBRANCH   7   8
BRANCH  41  42
ATOM     42  C   UNL     1      48.069  19.849  21.073  0.00  0.00    +0.094 C 
BRANCH  42  43
ATOM     43  C   UNL     1      49.265  20.418  20.353  0.00  0.00    -0.106 A 
ATOM     44  C   UNL     1      49.244  20.552  18.978  0.00  0.00    +0.015 A 
ATOM     45  C   UNL     1      50.341  21.073  18.316  0.00  0.00    +0.004 A 
ATOM     46  C   UNL     1      51.461  21.461  19.028  0.00  0.00    +0.026 A 
ATOM     47  C   UNL     1      51.486  21.330  20.403  0.00  0.00    -0.017 A 
ATOM     48  C   UNL     1      50.385  20.812  21.070  0.00  0.00    +0.108 A 
BRANCH  48  49
ATOM     49  O   UNL     1      50.406  20.686  22.424  0.00  0.00    -0.491 OA
ATOM     50  H   UNL     1      50.965  19.966  22.743  0.00  0.00    +0.380 HD
ENDBRANCH  48  49
ENDBRANCH  42  43
ENDBRANCH  41  42
ENDBRANCH  11  10
ENDBRANCH  12  11
TORSDOF 10
ENDMDL
MODEL 2
REMARK VINA RESULT:      -5.8      3.689      6.679
REMARK  Name = ZINC95485886
REMARK  17 active torsions:
REMARK  status: ('A' for Active; 'I' for Inactive)
REMARK    1  A    between atoms: C1_1  and  N1_2
REMARK    2  A    between atoms: C6_7  and  O6_50
REMARK    3  A    between atoms: C7_8  and  C18_21
REMARK    4  A    between atoms: C10_11  and  C11_13
REMARK    5  A    between atoms: C11_13  and  C12_14
REMARK    6  A    between atoms: C17_19  and  O1_20
REMARK    7  A    between atoms: C18_21  and  C19_22
REMARK    8  A    between atoms: C23_26  and  O3_30
REMARK    9  A    between atoms: C24_27  and  O2_28
REMARK   10  A    between atoms: O2_28  and  C25_29
REMARK   11  A    between atoms: O3_30  and  C26_31
REMARK   12  A    between atoms: C30_36  and  O5_48
REMARK   13  A    between atoms: C31_37  and  O4_46
REMARK   14  A    between atoms: N2_44  and  C37_45
REMARK   15  A    between atoms: O4_46  and  C38_47
REMARK   16  A    between atoms: O5_48  and  C39_49
REMARK   17  A    between atoms: O6_50  and  C40_51
REMARK                            x       y       z     vdW  Elec       q    Type
REMARK                         _______ _______ _______ _____ _____    ______ ____
ROOT
ATOM     12  C   UNL     1      46.824  14.550  17.656  0.00  0.00    -0.061 A 
ATOM     13  C   UNL     1      47.300  13.537  16.823  0.00  0.00    -0.051 A 
ATOM     14  C   UNL     1      47.796  12.382  17.359  0.00  0.00    -0.108 A 
ATOM     15  C   UNL     1      48.366  11.232  16.594  0.00  0.00    +0.301 C 
ATOM     16  C   UNL     1      49.380  11.589  15.560  0.00  0.00    -0.136 A 
ATOM     17  C   UNL     1      50.719  11.288  15.672  0.00  0.00    +0.015 A 
ATOM     18  C   UNL     1      51.587  11.636  14.648  0.00  0.00    +0.115 A 
ATOM     21  C   UNL     1      51.111  12.285  13.513  0.00  0.00    +0.131 A 
ATOM     24  C   UNL     1      49.760  12.596  13.410  0.00  0.00    -0.005 A 
ATOM     25  C   UNL     1      48.912  12.257  14.434  0.00  0.00    -0.072 A 
ATOM     26  C   UNL     1      47.452  12.596  14.464  0.00  0.00    +0.070 C 
ATOM     27  C   UNL     1      46.649  11.365  14.854  0.00  0.00    +0.260 C 
ATOM     28  N   UNL     1      47.240  10.573  15.903  0.00  0.00    -0.376 N 
ATOM     29  H   UNL     1      47.566   9.705  15.508  0.00  0.00    +0.425 HD
ATOM     30  C   UNL     1      46.192  10.277  16.888  0.00  0.00    +0.319 C 
ATOM     31  C   UNL     1      47.802  12.232  18.751  0.00  0.00    -0.057 A 
ATOM     32  C   UNL     1      47.331  13.227  19.581  0.00  0.00    +0.116 A 
ATOM     35  C   UNL     1      47.221  13.791  15.353  0.00  0.00    +0.109 C 
ATOM     36  C   UNL     1      46.842  14.407  19.029  0.00  0.00    +0.123 A 
ENDROOT
BRANCH  18  19
ATOM     19  O   UNL     1      52.911  11.342  14.754  0.00  0.00    -0.295 OA
ATOM     20  C   UNL     1      53.315  10.565  15.883  0.00  0.00    +0.249 C 
ENDBRANCH  18  19
BRANCH  21  22
ATOM     22  O   UNL     1      51.963  12.615  12.507  0.00  0.00    -0.293 OA
ATOM     23  C   UNL     1      51.448  13.446  11.465  0.00  0.00    +0.248 C 
ENDBRANCH  21  22
BRANCH  32  33
ATOM     33  O   UNL     1      47.349  13.058  20.931  0.00  0.00    -0.297 OA
ATOM     34  C   UNL     1      48.577  12.620  21.514  0.00  0.00    +0.245 C 
ENDBRANCH  32  33
BRANCH  36  37
ATOM     37  O   UNL     1      46.384  15.405  19.831  0.00  0.00    -0.291 OA
ATOM     38  C   UNL     1      45.086  15.233  20.403  0.00  0.00    +0.225 C 
ENDBRANCH  36  37
BRANCH  12  11
ATOM     11  C   UNL     1      46.287  15.819  17.048  0.00  0.00    +0.147 C 
BRANCH  11  10
ATOM      1  C   UNL     1      45.870  22.212  20.726  0.00  0.00    +0.192 C 
ATOM      2  N   UNL     1      46.665  21.281  19.913  0.00  0.00    -0.522 NA
ATOM      3  C   UNL     1      47.980  21.037  20.528  0.00  0.00    +0.172 C 
ATOM      4  C   UNL     1      48.885  20.377  19.488  0.00  0.00    +0.087 C 
ATOM      5  C   UNL     1      48.182  19.198  18.866  0.00  0.00    -0.015 A 
ATOM      6  C   UNL     1      48.940  18.264  18.177  0.00  0.00    -0.082 A 
ATOM      7  C   UNL     1      48.332  17.168  17.587  0.00  0.00    +0.146 A 
ATOM     10  C   UNL     1      46.958  17.006  17.689  0.00  0.00    -0.122 A 
ATOM     39  C   UNL     1      46.207  17.936  18.378  0.00  0.00    +0.048 A 
ATOM     40  C   UNL     1      46.816  19.033  18.971  0.00  0.00    -0.112 A 
ATOM     41  C   UNL     1      45.953  20.014  19.718  0.00  0.00    +0.191 C 
BRANCH   7   8
ATOM      8  O   UNL     1      49.079  16.255  16.912  0.00  0.00    -0.281 OA
ATOM      9  C   UNL     1      50.162  15.651  17.621  0.00  0.00    +0.232 C 
ENDBRANCH   7   8
BRANCH  41  42
ATOM     42  C   UNL     1      44.673  20.271  18.921  0.00  0.00    +0.094 C 
BRANCH  42  43
ATOM     43  C   UNL     1      43.484  19.778  19.706  0.00  0.00    -0.106 A 
ATOM     44  C   UNL     1      43.675  19.089  20.888  0.00  0.00    +0.015 A 
ATOM     45  C   UNL     1      42.585  18.635  21.608  0.00  0.00    +0.004 A 
ATOM     46  C   UNL     1      41.302  18.870  21.147  0.00  0.00    +0.026 A 
ATOM     47  C   UNL     1      41.107  19.560  19.967  0.00  0.00    -0.017 A 
ATOM     48  C   UNL     1      42.199  20.020  19.244  0.00  0.00    +0.108 A 
BRANCH  48  49
ATOM     49  O   UNL     1      42.009  20.703  18.084  0.00  0.00    -0.491 OA
ATOM     50  H   UNL     1      42.789  20.732  17.514  0.00  0.00    +0.380 HD
ENDBRANCH  48  49
ENDBRANCH  42  43
ENDBRANCH  41  42
ENDBRANCH  11  10
ENDBRANCH  12  11
TORSDOF 10
ENDMDL
MODEL 3
REMARK VINA RESULT:      -5.8      2.461      7.568
REMARK  Name = ZINC95485886
REMARK  17 active torsions:
REMARK  status: ('A' for Active; 'I' for Inactive)
REMARK    1  A    between atoms: C1_1  and  N1_2
REMARK    2  A    between atoms: C6_7  and  O6_50
REMARK    3  A    between atoms: C7_8  and  C18_21
REMARK    4  A    between atoms: C10_11  and  C11_13
REMARK    5  A    between atoms: C11_13  and  C12_14
REMARK    6  A    between atoms: C17_19  and  O1_20
REMARK    7  A    between atoms: C18_21  and  C19_22
REMARK    8  A    between atoms: C23_26  and  O3_30
REMARK    9  A    between atoms: C24_27  and  O2_28
REMARK   10  A    between atoms: O2_28  and  C25_29
REMARK   11  A    between atoms: O3_30  and  C26_31
REMARK   12  A    between atoms: C30_36  and  O5_48
REMARK   13  A    between atoms: C31_37  and  O4_46
REMARK   14  A    between atoms: N2_44  and  C37_45
REMARK   15  A    between atoms: O4_46  and  C38_47
REMARK   16  A    between atoms: O5_48  and  C39_49
REMARK   17  A    between atoms: O6_50  and  C40_51
REMARK                            x       y       z     vdW  Elec       q    Type
REMARK                         _______ _______ _______ _____ _____    ______ ____
ROOT
ATOM     12  C   UNL     1      48.574  14.029  17.139  0.00  0.00    -0.061 A 
ATOM     13  C   UNL     1      48.104  14.920  18.104  0.00  0.00    -0.051 A 
ATOM     14  C   UNL     1      46.913  14.689  18.732  0.00  0.00    -0.108 A 
ATOM     15  C   UNL     1      46.275  15.570  19.757  0.00  0.00    +0.301 C 
ATOM     16  C   UNL     1      46.196  17.016  19.401  0.00  0.00    -0.136 A 
ATOM     17  C   UNL     1      45.017  17.664  19.109  0.00  0.00    +0.015 A 
ATOM     18  C   UNL     1      45.035  19.020  18.813  0.00  0.00    +0.115 A 
ATOM     21  C   UNL     1      46.237  19.722  18.813  0.00  0.00    +0.131 A 
ATOM     24  C   UNL     1      47.425  19.060  19.098  0.00  0.00    -0.005 A 
ATOM     25  C   UNL     1      47.396  17.718  19.377  0.00  0.00    -0.072 A 
ATOM     26  C   UNL     1      48.617  16.886  19.636  0.00  0.00    +0.070 C 
ATOM     27  C   UNL     1      48.401  16.034  20.877  0.00  0.00    +0.260 C 
ATOM     28  N   UNL     1      47.085  15.458  20.986  0.00  0.00    -0.376 N 
ATOM     29  H   UNL     1      46.594  15.914  21.740  0.00  0.00    +0.425 HD
ATOM     30  C   UNL     1      47.241  14.037  21.319  0.00  0.00    +0.319 C 
ATOM     31  C   UNL     1      46.185  13.540  18.399  0.00  0.00    -0.057 A 
ATOM     32  C   UNL     1      46.643  12.653  17.448  0.00  0.00    +0.116 A 
ATOM     35  C   UNL     1      48.973  16.099  18.401  0.00  0.00    +0.109 C 
ATOM     36  C   UNL     1      47.850  12.903  16.801  0.00  0.00    +0.123 A 
ENDROOT
BRANCH  18  19
ATOM     19  O   UNL     1      43.874  19.665  18.523  0.00  0.00    -0.295 OA
ATOM     20  C   UNL     1      42.878  19.702  19.548  0.00  0.00    +0.249 C 
ENDBRANCH  18  19
BRANCH  21  22
ATOM     22  O   UNL     1      46.249  21.052  18.533  0.00  0.00    -0.293 OA
ATOM     23  C   UNL     1      45.940  21.945  19.607  0.00  0.00    +0.248 C 
ENDBRANCH  21  22
BRANCH  32  33
ATOM     33  O   UNL     1      45.918  11.544  17.141  0.00  0.00    -0.297 OA
ATOM     34  C   UNL     1      44.655  11.749  16.505  0.00  0.00    +0.245 C 
ENDBRANCH  32  33
BRANCH  36  37
ATOM     37  O   UNL     1      48.313  12.046  15.851  0.00  0.00    -0.291 OA
ATOM     38  C   UNL     1      47.848  12.247  14.515  0.00  0.00    +0.225 C 
ENDBRANCH  36  37
BRANCH  12  11
ATOM     11  C   UNL     1      49.886  14.303  16.452  0.00  0.00    +0.147 C 
BRANCH  11  10
ATOM      1  C   UNL     1      55.163  15.973  21.343  0.00  0.00    +0.192 C 
ATOM      2  N   UNL     1      54.595  15.011  20.389  0.00  0.00    -0.522 NA
ATOM      3  C   UNL     1      54.490  13.671  20.990  0.00  0.00    +0.172 C 
ATOM      4  C   UNL     1      54.251  12.656  19.873  0.00  0.00    +0.087 C 
ATOM      5  C   UNL     1      53.114  13.113  18.996  0.00  0.00    -0.015 A 
ATOM      6  C   UNL     1      52.511  12.186  18.159  0.00  0.00    -0.082 A 
ATOM      7  C   UNL     1      51.465  12.565  17.334  0.00  0.00    +0.146 A 
ATOM     10  C   UNL     1      51.021  13.880  17.348  0.00  0.00    -0.122 A 
ATOM     39  C   UNL     1      51.621  14.799  18.183  0.00  0.00    +0.048 A 
ATOM     40  C   UNL     1      52.667  14.418  19.012  0.00  0.00    -0.112 A 
ATOM     41  C   UNL     1      53.283  15.457  19.911  0.00  0.00    +0.191 C 
BRANCH   7   8
ATOM      8  O   UNL     1      50.876  11.655  16.515  0.00  0.00    -0.281 OA
ATOM      9  C   UNL     1      51.703  11.050  15.518  0.00  0.00    +0.232 C 
ENDBRANCH   7   8
BRANCH  41  42
ATOM     42  C   UNL     1      53.446  16.765  19.135  0.00  0.00    +0.094 C 
BRANCH  42  43
ATOM     43  C   UNL     1      52.489  17.795  19.678  0.00  0.00    -0.106 A 
ATOM     44  C   UNL     1      52.020  17.687  20.973  0.00  0.00    +0.015 A 
ATOM     45  C   UNL     1      51.141  18.630  21.473  0.00  0.00    +0.004 A 
ATOM     46  C   UNL     1      50.730  19.685  20.677  0.00  0.00    +0.026 A 
ATOM     47  C   UNL     1      51.197  19.798  19.382  0.00  0.00    -0.017 A 
ATOM     48  C   UNL     1      52.082  18.854  18.880  0.00  0.00    +0.108 A 
BRANCH  48  49
ATOM     49  O   UNL     1      52.547  18.966  17.607  0.00  0.00    -0.491 OA
ATOM     50  H   UNL     1      52.084  19.627  17.076  0.00  0.00    +0.380 HD
ENDBRANCH  48  49
ENDBRANCH  42  43
ENDBRANCH  41  42
ENDBRANCH  11  10
ENDBRANCH  12  11
TORSDOF 10
ENDMDL
MODEL 4
REMARK VINA RESULT:      -5.7      2.639      7.159
REMARK  Name = ZINC95485886
REMARK  17 active torsions:
REMARK  status: ('A' for Active; 'I' for Inactive)
REMARK    1  A    between atoms: C1_1  and  N1_2
REMARK    2  A    between atoms: C6_7  and  O6_50
REMARK    3  A    between atoms: C7_8  and  C18_21
REMARK    4  A    between atoms: C10_11  and  C11_13
REMARK    5  A    between atoms: C11_13  and  C12_14
REMARK    6  A    between atoms: C17_19  and  O1_20
REMARK    7  A    between atoms: C18_21  and  C19_22
REMARK    8  A    between atoms: C23_26  and  O3_30
REMARK    9  A    between atoms: C24_27  and  O2_28
REMARK   10  A    between atoms: O2_28  and  C25_29
REMARK   11  A    between atoms: O3_30  and  C26_31
REMARK   12  A    between atoms: C30_36  and  O5_48
REMARK   13  A    between atoms: C31_37  and  O4_46
REMARK   14  A    between atoms: N2_44  and  C37_45
REMARK   15  A    between atoms: O4_46  and  C38_47
REMARK   16  A    between atoms: O5_48  and  C39_49
REMARK   17  A    between atoms: O6_50  and  C40_51
REMARK                            x       y       z     vdW  Elec       q    Type
REMARK                         _______ _______ _______ _____ _____    ______ ____
ROOT
ATOM     12  C   UNL     1      50.615  12.214  17.141  0.00  0.00    -0.061 A 
ATOM     13  C   UNL     1      49.278  12.609  17.198  0.00  0.00    -0.051 A 
ATOM     14  C   UNL     1      48.655  13.091  16.082  0.00  0.00    -0.108 A 
ATOM     15  C   UNL     1      47.245  13.579  16.005  0.00  0.00    +0.301 C 
ATOM     16  C   UNL     1      46.842  14.547  17.064  0.00  0.00    -0.136 A 
ATOM     17  C   UNL     1      46.588  15.878  16.821  0.00  0.00    +0.015 A 
ATOM     18  C   UNL     1      46.193  16.703  17.865  0.00  0.00    +0.115 A 
ATOM     21  C   UNL     1      46.050  16.189  19.150  0.00  0.00    +0.131 A 
ATOM     24  C   UNL     1      46.318  14.846  19.392  0.00  0.00    -0.005 A 
ATOM     25  C   UNL     1      46.719  14.044  18.355  0.00  0.00    -0.072 A 
ATOM     26  C   UNL     1      47.095  12.600  18.506  0.00  0.00    +0.070 C 
ATOM     27  C   UNL     1      46.403  11.776  17.432  0.00  0.00    +0.260 C 
ATOM     28  N   UNL     1      46.372  12.394  16.131  0.00  0.00    -0.376 N 
ATOM     29  H   UNL     1      45.423  12.668  15.924  0.00  0.00    +0.425 HD
ATOM     30  C   UNL     1      46.796  11.391  15.146  0.00  0.00    +0.319 C 
ATOM     31  C   UNL     1      49.377  13.168  14.885  0.00  0.00    -0.057 A 
ATOM     32  C   UNL     1      50.698  12.778  14.819  0.00  0.00    +0.116 A 
ATOM     35  C   UNL     1      48.596  12.460  18.519  0.00  0.00    +0.109 C 
ATOM     36  C   UNL     1      51.331  12.302  15.964  0.00  0.00    +0.123 A 
ENDROOT
BRANCH  18  19
ATOM     19  O   UNL     1      45.943  18.019  17.631  0.00  0.00    -0.295 OA
ATOM     20  C   UNL     1      46.940  18.953  18.047  0.00  0.00    +0.249 C 
ENDBRANCH  18  19
BRANCH  21  22
ATOM     22  O   UNL     1      45.652  16.997  20.168  0.00  0.00    -0.293 OA
ATOM     23  C   UNL     1      44.713  16.455  21.099  0.00  0.00    +0.248 C 
ENDBRANCH  21  22
BRANCH  32  33
ATOM     33  O   UNL     1      51.379  12.862  13.645  0.00  0.00    -0.297 OA
ATOM     34  C   UNL     1      50.602  12.901  12.446  0.00  0.00    +0.245 C 
ENDBRANCH  32  33
BRANCH  36  37
ATOM     37  O   UNL     1      52.637  11.923  15.922  0.00  0.00    -0.291 OA
ATOM     38  C   UNL     1      52.912  10.593  15.478  0.00  0.00    +0.225 C 
ENDBRANCH  36  37
BRANCH  12  11
ATOM     11  C   UNL     1      51.288  11.691  18.383  0.00  0.00    +0.147 C 
BRANCH  11  10
ATOM      1  C   UNL     1      51.044  18.293  21.687  0.00  0.00    +0.192 C 
ATOM      2  N   UNL     1      51.846  17.227  21.072  0.00  0.00    -0.522 NA
ATOM      3  C   UNL     1      52.986  16.863  21.929  0.00  0.00    +0.172 C 
ATOM      4  C   UNL     1      53.971  16.037  21.101  0.00  0.00    +0.087 C 
ATOM      5  C   UNL     1      53.244  14.918  20.401  0.00  0.00    -0.015 A 
ATOM      6  C   UNL     1      53.987  13.860  19.900  0.00  0.00    -0.082 A 
ATOM      7  C   UNL     1      53.360  12.813  19.246  0.00  0.00    +0.146 A 
ATOM     10  C   UNL     1      51.980  12.824  19.095  0.00  0.00    -0.122 A 
ATOM     39  C   UNL     1      51.244  13.877  19.598  0.00  0.00    +0.048 A 
ATOM     40  C   UNL     1      51.873  14.925  20.255  0.00  0.00    -0.112 A 
ATOM     41  C   UNL     1      51.023  16.046  20.792  0.00  0.00    +0.191 C 
BRANCH   7   8
ATOM      8  O   UNL     1      54.091  11.778  18.755  0.00  0.00    -0.281 OA
ATOM      9  C   UNL     1      54.715  10.915  19.709  0.00  0.00    +0.232 C 
ENDBRANCH   7   8
BRANCH  41  42
ATOM     42  C   UNL     1      49.953  16.408  19.761  0.00  0.00    +0.094 C 
BRANCH  42  43
ATOM     43  C   UNL     1      50.617  16.853  18.483  0.00  0.00    -0.106 A 
ATOM     44  C   UNL     1      51.099  15.914  17.592  0.00  0.00    +0.015 A 
ATOM     45  C   UNL     1      51.710  16.321  16.419  0.00  0.00    +0.004 A 
ATOM     46  C   UNL     1      51.839  17.669  16.136  0.00  0.00    +0.026 A 
ATOM     47  C   UNL     1      51.357  18.611  17.024  0.00  0.00    -0.017 A 
ATOM     48  C   UNL     1      50.741  18.205  18.199  0.00  0.00    +0.108 A 
BRANCH  48  49
ATOM     49  O   UNL     1      50.262  19.131  19.072  0.00  0.00    -0.491 OA
ATOM     50  H   UNL     1      50.723  19.146  19.921  0.00  0.00    +0.380 HD
ENDBRANCH  48  49
ENDBRANCH  42  43
ENDBRANCH  41  42
ENDBRANCH  11  10
ENDBRANCH  12  11
TORSDOF 10
ENDMDL
MODEL 5
REMARK VINA RESULT:      -5.6      2.499      7.035
REMARK  Name = ZINC95485886
REMARK  17 active torsions:
REMARK  status: ('A' for Active; 'I' for Inactive)
REMARK    1  A    between atoms: C1_1  and  N1_2
REMARK    2  A    between atoms: C6_7  and  O6_50
REMARK    3  A    between atoms: C7_8  and  C18_21
REMARK    4  A    between atoms: C10_11  and  C11_13
REMARK    5  A    between atoms: C11_13  and  C12_14
REMARK    6  A    between atoms: C17_19  and  O1_20
REMARK    7  A    between atoms: C18_21  and  C19_22
REMARK    8  A    between atoms: C23_26  and  O3_30
REMARK    9  A    between atoms: C24_27  and  O2_28
REMARK   10  A    between atoms: O2_28  and  C25_29
REMARK   11  A    between atoms: O3_30  and  C26_31
REMARK   12  A    between atoms: C30_36  and  O5_48
REMARK   13  A    between atoms: C31_37  and  O4_46
REMARK   14  A    between atoms: N2_44  and  C37_45
REMARK   15  A    between atoms: O4_46  and  C38_47
REMARK   16  A    between atoms: O5_48  and  C39_49
REMARK   17  A    between atoms: O6_50  and  C40_51
REMARK                            x       y       z     vdW  Elec       q    Type
REMARK                         _______ _______ _______ _____ _____    ______ ____
ROOT
ATOM     12  C   UNL     1      50.058  13.170  18.608  0.00  0.00    -0.061 A 
ATOM     13  C   UNL     1      48.737  13.591  18.452  0.00  0.00    -0.051 A 
ATOM     14  C   UNL     1      48.293  14.026  17.235  0.00  0.00    -0.108 A 
ATOM     15  C   UNL     1      46.921  14.533  16.931  0.00  0.00    +0.301 C 
ATOM     16  C   UNL     1      46.394  15.562  17.872  0.00  0.00    -0.136 A 
ATOM     17  C   UNL     1      46.211  16.883  17.530  0.00  0.00    +0.015 A 
ATOM     18  C   UNL     1      45.691  17.767  18.464  0.00  0.00    +0.115 A 
ATOM     21  C   UNL     1      45.352  17.323  19.739  0.00  0.00    +0.131 A 
ATOM     24  C   UNL     1      45.548  15.991  20.082  0.00  0.00    -0.005 A 
ATOM     25  C   UNL     1      46.074  15.128  19.154  0.00  0.00    -0.072 A 
ATOM     26  C   UNL     1      46.389  13.688  19.428  0.00  0.00    +0.070 C 
ATOM     27  C   UNL     1      45.838  12.822  18.307  0.00  0.00    +0.260 C 
ATOM     28  N   UNL     1      46.010  13.372  16.986  0.00  0.00    -0.376 N 
ATOM     29  H   UNL     1      45.108  13.651  16.632  0.00  0.00    +0.425 HD
ATOM     30  C   UNL     1      46.546  12.312  16.123  0.00  0.00    +0.319 C 
ATOM     31  C   UNL     1      49.182  14.027  16.153  0.00  0.00    -0.057 A 
ATOM     32  C   UNL     1      50.488  13.611  16.298  0.00  0.00    +0.116 A 
ATOM     35  C   UNL     1      47.869  13.523  19.666  0.00  0.00    +0.109 C 
ATOM     36  C   UNL     1      50.938  13.184  17.544  0.00  0.00    +0.123 A 
ENDROOT
BRANCH  18  19
ATOM     19  O   UNL     1      45.510  19.074  18.132  0.00  0.00    -0.295 OA
ATOM     20  C   UNL     1      44.239  19.652  18.440  0.00  0.00    +0.249 C 
ENDBRANCH  18  19
BRANCH  21  22
ATOM     22  O   UNL     1      44.832  18.190  20.647  0.00  0.00    -0.293 OA
ATOM     23  C   UNL     1      43.680  17.756  21.374  0.00  0.00    +0.248 C 
ENDBRANCH  21  22
BRANCH  32  33
ATOM     33  O   UNL     1      51.332  13.622  15.232  0.00  0.00    -0.297 OA
ATOM     34  C   UNL     1      50.931  12.879  14.079  0.00  0.00    +0.245 C 
ENDBRANCH  32  33
BRANCH  36  37
ATOM     37  O   UNL     1      52.226  12.781  17.710  0.00  0.00    -0.291 OA
ATOM     38  C   UNL     1      52.530  11.426  17.374  0.00  0.00    +0.225 C 
ENDBRANCH  36  37
BRANCH  12  11
ATOM     11  C   UNL     1      50.533  12.700  19.958  0.00  0.00    +0.147 C 
BRANCH  11  10
ATOM      1  C   UNL     1      52.233  19.751  21.360  0.00  0.00    +0.192 C 
ATOM      2  N   UNL     1      52.661  18.347  21.286  0.00  0.00    -0.522 NA
ATOM      3  C   UNL     1      53.385  17.952  22.505  0.00  0.00    +0.172 C 
ATOM      4  C   UNL     1      54.112  16.636  22.232  0.00  0.00    +0.087 C 
ATOM      5  C   UNL     1      53.158  15.633  21.636  0.00  0.00    -0.015 A 
ATOM      6  C   UNL     1      53.516  14.294  21.647  0.00  0.00    -0.082 A 
ATOM      7  C   UNL     1      52.670  13.340  21.107  0.00  0.00    +0.146 A 
ATOM     10  C   UNL     1      51.459  13.730  20.552  0.00  0.00    -0.122 A 
ATOM     39  C   UNL     1      51.106  15.064  20.545  0.00  0.00    +0.048 A 
ATOM     40  C   UNL     1      51.952  16.018  21.089  0.00  0.00    -0.112 A 
ATOM     41  C   UNL     1      51.516  17.460  21.064  0.00  0.00    +0.191 C 
BRANCH   7   8
ATOM      8  O   UNL     1      53.023  12.028  21.119  0.00  0.00    -0.281 OA
ATOM      9  C   UNL     1      54.347  11.709  20.685  0.00  0.00    +0.232 C 
ENDBRANCH   7   8
BRANCH  41  42
ATOM     42  C   UNL     1      50.888  17.774  19.705  0.00  0.00    +0.094 C 
BRANCH  42  43
ATOM     43  C   UNL     1      49.778  18.779  19.885  0.00  0.00    -0.106 A 
ATOM     44  C   UNL     1      48.886  18.643  20.930  0.00  0.00    +0.015 A 
ATOM     45  C   UNL     1      47.867  19.563  21.096  0.00  0.00    +0.004 A 
ATOM     46  C   UNL     1      47.739  20.621  20.214  0.00  0.00    +0.026 A 
ATOM     47  C   UNL     1      48.629  20.762  19.168  0.00  0.00    -0.017 A 
ATOM     48  C   UNL     1      49.655  19.842  19.003  0.00  0.00    +0.108 A 
BRANCH  48  49
ATOM     49  O   UNL     1      50.536  19.981  17.976  0.00  0.00    -0.491 OA
ATOM     50  H   UNL     1      50.416  19.337  17.266  0.00  0.00    +0.380 HD
ENDBRANCH  48  49
ENDBRANCH  42  43
ENDBRANCH  41  42
ENDBRANCH  11  10
ENDBRANCH  12  11
TORSDOF 10
ENDMDL
MODEL 6
REMARK VINA RESULT:      -5.6      2.363      6.645
REMARK  Name = ZINC95485886
REMARK  17 active torsions:
REMARK  status: ('A' for Active; 'I' for Inactive)
REMARK    1  A    between atoms: C1_1  and  N1_2
REMARK    2  A    between atoms: C6_7  and  O6_50
REMARK    3  A    between atoms: C7_8  and  C18_21
REMARK    4  A    between atoms: C10_11  and  C11_13
REMARK    5  A    between atoms: C11_13  and  C12_14
REMARK    6  A    between atoms: C17_19  and  O1_20
REMARK    7  A    between atoms: C18_21  and  C19_22
REMARK    8  A    between atoms: C23_26  and  O3_30
REMARK    9  A    between atoms: C24_27  and  O2_28
REMARK   10  A    between atoms: O2_28  and  C25_29
REMARK   11  A    between atoms: O3_30  and  C26_31
REMARK   12  A    between atoms: C30_36  and  O5_48
REMARK   13  A    between atoms: C31_37  and  O4_46
REMARK   14  A    between atoms: N2_44  and  C37_45
REMARK   15  A    between atoms: O4_46  and  C38_47
REMARK   16  A    between atoms: O5_48  and  C39_49
REMARK   17  A    between atoms: O6_50  and  C40_51
REMARK                            x       y       z     vdW  Elec       q    Type
REMARK                         _______ _______ _______ _____ _____    ______ ____
ROOT
ATOM     12  C   UNL     1      49.969  13.760  18.890  0.00  0.00    -0.061 A 
ATOM     13  C   UNL     1      48.627  14.141  18.926  0.00  0.00    -0.051 A 
ATOM     14  C   UNL     1      47.950  14.384  17.764  0.00  0.00    -0.108 A 
ATOM     15  C   UNL     1      46.528  14.828  17.652  0.00  0.00    +0.301 C 
ATOM     16  C   UNL     1      46.146  15.982  18.515  0.00  0.00    -0.136 A 
ATOM     17  C   UNL     1      45.855  17.235  18.024  0.00  0.00    +0.015 A 
ATOM     18  C   UNL     1      45.484  18.245  18.900  0.00  0.00    +0.115 A 
ATOM     21  C   UNL     1      45.403  17.995  20.266  0.00  0.00    +0.131 A 
ATOM     24  C   UNL     1      45.708  16.731  20.757  0.00  0.00    -0.005 A 
ATOM     25  C   UNL     1      46.085  15.743  19.884  0.00  0.00    -0.072 A 
ATOM     26  C   UNL     1      46.498  14.363  20.301  0.00  0.00    +0.070 C 
ATOM     27  C   UNL     1      45.781  13.334  19.443  0.00  0.00    +0.260 C 
ATOM     28  N   UNL     1      45.686  13.680  18.047  0.00  0.00    -0.376 N 
ATOM     29  H   UNL     1      44.724  13.895  17.832  0.00  0.00    +0.425 HD
ATOM     30  C   UNL     1      46.092  12.507  17.263  0.00  0.00    +0.319 C 
ATOM     31  C   UNL     1      48.623  14.230  16.545  0.00  0.00    -0.057 A 
ATOM     32  C   UNL     1      49.948  13.852  16.502  0.00  0.00    +0.116 A 
ATOM     35  C   UNL     1      48.001  14.249  20.278  0.00  0.00    +0.109 C 
ATOM     36  C   UNL     1      50.636  13.621  17.690  0.00  0.00    +0.123 A 
ENDROOT
BRANCH  18  19
ATOM     19  O   UNL     1      45.197  19.485  18.420  0.00  0.00    -0.295 OA
ATOM     20  C   UNL     1      46.248  20.452  18.451  0.00  0.00    +0.249 C 
ENDBRANCH  18  19
BRANCH  21  22
ATOM     22  O   UNL     1      45.028  18.984  21.119  0.00  0.00    -0.293 OA
ATOM     23  C   UNL     1      45.991  19.406  22.089  0.00  0.00    +0.248 C 
ENDBRANCH  21  22
BRANCH  32  33
ATOM     33  O   UNL     1      50.580  13.709  15.305  0.00  0.00    -0.297 OA
ATOM     34  C   UNL     1      50.019  12.773  14.383  0.00  0.00    +0.245 C 
ENDBRANCH  32  33
BRANCH  36  37
ATOM     37  O   UNL     1      51.946  13.259  17.668  0.00  0.00    -0.291 OA
ATOM     38  C   UNL     1      52.232  11.872  17.480  0.00  0.00    +0.225 C 
ENDBRANCH  36  37
BRANCH  12  11
ATOM     11  C   UNL     1      50.701  13.503  20.181  0.00  0.00    +0.147 C 
BRANCH  11  10
ATOM      1  C   UNL     1      50.168  20.728  21.626  0.00  0.00    +0.192 C 
ATOM      2  N   UNL     1      51.020  19.547  21.426  0.00  0.00    -0.522 NA
ATOM      3  C   UNL     1      52.014  19.426  22.505  0.00  0.00    +0.172 C 
ATOM      4  C   UNL     1      53.084  18.426  22.068  0.00  0.00    +0.087 C 
ATOM      5  C   UNL     1      52.436  17.158  21.577  0.00  0.00    -0.015 A 
ATOM      6  C   UNL     1      53.213  16.015  21.475  0.00  0.00    -0.082 A 
ATOM      7  C   UNL     1      52.657  14.829  21.025  0.00  0.00    +0.146 A 
ATOM     10  C   UNL     1      51.315  14.787  20.675  0.00  0.00    -0.122 A 
ATOM     39  C   UNL     1      50.544  15.927  20.780  0.00  0.00    +0.048 A 
ATOM     40  C   UNL     1      51.100  17.114  21.234  0.00  0.00    -0.112 A 
ATOM     41  C   UNL     1      50.213  18.326  21.339  0.00  0.00    +0.191 C 
BRANCH   7   8
ATOM      8  O   UNL     1      53.422  13.710  20.926  0.00  0.00    -0.281 OA
ATOM      9  C   UNL     1      54.495  13.740  19.982  0.00  0.00    +0.232 C 
ENDBRANCH   7   8
BRANCH  41  42
ATOM     42  C   UNL     1      49.314  18.403  20.104  0.00  0.00    +0.094 C 
BRANCH  42  43
ATOM     43  C   UNL     1      50.167  18.514  18.866  0.00  0.00    -0.106 A 
ATOM     44  C   UNL     1      50.715  17.379  18.301  0.00  0.00    +0.015 A 
ATOM     45  C   UNL     1      51.499  17.480  17.166  0.00  0.00    +0.004 A 
ATOM     46  C   UNL     1      51.736  18.718  16.595  0.00  0.00    +0.026 A 
ATOM     47  C   UNL     1      51.189  19.855  17.156  0.00  0.00    -0.017 A 
ATOM     48  C   UNL     1      50.399  19.756  18.292  0.00  0.00    +0.108 A 
BRANCH  48  49
ATOM     49  O   UNL     1      49.856  20.873  18.844  0.00  0.00    -0.491 OA
ATOM     50  H   UNL     1      50.433  21.319  19.478  0.00  0.00    +0.380 HD
ENDBRANCH  48  49
ENDBRANCH  42  43
ENDBRANCH  41  42
ENDBRANCH  11  10
ENDBRANCH  12  11
TORSDOF 10
ENDMDL
MODEL 7
REMARK VINA RESULT:      -5.5      2.323      5.638
REMARK  Name = ZINC95485886
REMARK  17 active torsions:
REMARK  status: ('A' for Active; 'I' for Inactive)
REMARK    1  A    between atoms: C1_1  and  N1_2
REMARK    2  A    between atoms: C6_7  and  O6_50
REMARK    3  A    between atoms: C7_8  and  C18_21
REMARK    4  A    between atoms: C10_11  and  C11_13
REMARK    5  A    between atoms: C11_13  and  C12_14
REMARK    6  A    between atoms: C17_19  and  O1_20
REMARK    7  A    between atoms: C18_21  and  C19_22
REMARK    8  A    between atoms: C23_26  and  O3_30
REMARK    9  A    between atoms: C24_27  and  O2_28
REMARK   10  A    between atoms: O2_28  and  C25_29
REMARK   11  A    between atoms: O3_30  and  C26_31
REMARK   12  A    between atoms: C30_36  and  O5_48
REMARK   13  A    between atoms: C31_37  and  O4_46
REMARK   14  A    between atoms: N2_44  and  C37_45
REMARK   15  A    between atoms: O4_46  and  C38_47
REMARK   16  A    between atoms: O5_48  and  C39_49
REMARK   17  A    between atoms: O6_50  and  C40_51
REMARK                            x       y       z     vdW  Elec       q    Type
REMARK                         _______ _______ _______ _____ _____    ______ ____
ROOT
ATOM     12  C   UNL     1      50.998  14.084  20.664  0.00  0.00    -0.061 A 
ATOM     13  C   UNL     1      51.003  13.179  19.602  0.00  0.00    -0.051 A 
ATOM     14  C   UNL     1      51.971  13.253  18.640  0.00  0.00    -0.108 A 
ATOM     15  C   UNL     1      52.081  12.376  17.435  0.00  0.00    +0.301 C 
ATOM     16  C   UNL     1      50.829  12.213  16.643  0.00  0.00    -0.136 A 
ATOM     17  C   UNL     1      50.648  12.747  15.388  0.00  0.00    +0.015 A 
ATOM     18  C   UNL     1      49.457  12.523  14.712  0.00  0.00    +0.115 A 
ATOM     21  C   UNL     1      48.450  11.761  15.298  0.00  0.00    +0.131 A 
ATOM     24  C   UNL     1      48.634  11.233  16.571  0.00  0.00    -0.005 A 
ATOM     25  C   UNL     1      49.811  11.471  17.233  0.00  0.00    -0.072 A 
ATOM     26  C   UNL     1      50.098  11.008  18.631  0.00  0.00    +0.070 C 
ATOM     27  C   UNL     1      51.471  10.359  18.682  0.00  0.00    +0.260 C 
ATOM     28  N   UNL     1      52.483  11.037  17.912  0.00  0.00    -0.376 N 
ATOM     29  H   UNL     1      52.719  10.467  17.115  0.00  0.00    +0.425 HD
ATOM     30  C   UNL     1      53.675  11.177  18.758  0.00  0.00    +0.319 C 
ATOM     31  C   UNL     1      52.959  14.239  18.750  0.00  0.00    -0.057 A 
ATOM     32  C   UNL     1      52.963  15.135  19.798  0.00  0.00    +0.116 A 
ATOM     35  C   UNL     1      49.918  12.152  19.596  0.00  0.00    +0.109 C 
ATOM     36  C   UNL     1      51.964  15.064  20.765  0.00  0.00    +0.123 A 
ENDROOT
BRANCH  18  19
ATOM     19  O   UNL     1      49.273  13.049  13.472  0.00  0.00    -0.295 OA
ATOM     20  C   UNL     1      50.365  12.950  12.556  0.00  0.00    +0.249 C 
ENDBRANCH  18  19
BRANCH  21  22
ATOM     22  O   UNL     1      47.289  11.535  14.629  0.00  0.00    -0.293 OA
ATOM     23  C   UNL     1      46.265  10.823  15.327  0.00  0.00    +0.248 C 
ENDBRANCH  21  22
BRANCH  32  33
ATOM     33  O   UNL     1      53.933  16.085  19.883  0.00  0.00    -0.297 OA
ATOM     34  C   UNL     1      55.275  15.665  19.634  0.00  0.00    +0.245 C 
ENDBRANCH  32  33
BRANCH  36  37
ATOM     37  O   UNL     1      51.944  15.947  21.800  0.00  0.00    -0.291 OA
ATOM     38  C   UNL     1      51.777  17.327  21.471  0.00  0.00    +0.225 C 
ENDBRANCH  36  37
BRANCH  12  11
ATOM     11  C   UNL     1      49.919  13.993  21.710  0.00  0.00    +0.147 C 
BRANCH  11  10
ATOM      1  C   UNL     1      46.685  19.567  18.099  0.00  0.00    +0.192 C 
ATOM      2  N   UNL     1      46.564  18.434  19.026  0.00  0.00    -0.522 NA
ATOM      3  C   UNL     1      45.438  17.563  18.649  0.00  0.00    +0.172 C 
ATOM      4  C   UNL     1      45.130  16.634  19.823  0.00  0.00    +0.087 C 
ATOM      5  C   UNL     1      46.394  15.965  20.297  0.00  0.00    -0.015 A 
ATOM      6  C   UNL     1      46.286  14.837  21.096  0.00  0.00    -0.082 A 
ATOM      7  C   UNL     1      47.423  14.194  21.556  0.00  0.00    +0.146 A 
ATOM     10  C   UNL     1      48.675  14.683  21.213  0.00  0.00    -0.122 A 
ATOM     39  C   UNL     1      48.779  15.804  20.415  0.00  0.00    +0.048 A 
ATOM     40  C   UNL     1      47.640  16.446  19.952  0.00  0.00    -0.112 A 
ATOM     41  C   UNL     1      47.808  17.660  19.077  0.00  0.00    +0.191 C 
BRANCH   7   8
ATOM      8  O   UNL     1      47.313  13.089  22.340  0.00  0.00    -0.281 OA
ATOM      9  C   UNL     1      46.004  12.540  22.505  0.00  0.00    +0.232 C 
ENDBRANCH   7   8
BRANCH  41  42
ATOM     42  C   UNL     1      48.926  18.539  19.641  0.00  0.00    +0.094 C 
BRANCH  42  43
ATOM     43  C   UNL     1      49.937  18.822  18.559  0.00  0.00    -0.106 A 
ATOM     44  C   UNL     1      50.417  17.790  17.776  0.00  0.00    +0.015 A 
ATOM     45  C   UNL     1      51.346  18.048  16.784  0.00  0.00    +0.004 A 
ATOM     46  C   UNL     1      51.795  19.339  16.573  0.00  0.00    +0.026 A 
ATOM     47  C   UNL     1      51.317  20.374  17.353  0.00  0.00    -0.017 A 
ATOM     48  C   UNL     1      50.382  20.118  18.347  0.00  0.00    +0.108 A 
BRANCH  48  49
ATOM     49  O   UNL     1      49.906  21.136  19.113  0.00  0.00    -0.491 OA
ATOM     50  H   UNL     1      48.945  21.132  19.217  0.00  0.00    +0.380 HD
ENDBRANCH  48  49
ENDBRANCH  42  43
ENDBRANCH  41  42
ENDBRANCH  11  10
ENDBRANCH  12  11
TORSDOF 10
ENDMDL
MODEL 8
REMARK VINA RESULT:      -5.5      2.558      5.250
REMARK  Name = ZINC95485886
REMARK  17 active torsions:
REMARK  status: ('A' for Active; 'I' for Inactive)
REMARK    1  A    between atoms: C1_1  and  N1_2
REMARK    2  A    between atoms: C6_7  and  O6_50
REMARK    3  A    between atoms: C7_8  and  C18_21
REMARK    4  A    between atoms: C10_11  and  C11_13
REMARK    5  A    between atoms: C11_13  and  C12_14
REMARK    6  A    between atoms: C17_19  and  O1_20
REMARK    7  A    between atoms: C18_21  and  C19_22
REMARK    8  A    between atoms: C23_26  and  O3_30
REMARK    9  A    between atoms: C24_27  and  O2_28
REMARK   10  A    between atoms: O2_28  and  C25_29
REMARK   11  A    between atoms: O3_30  and  C26_31
REMARK   12  A    between atoms: C30_36  and  O5_48
REMARK   13  A    between atoms: C31_37  and  O4_46
REMARK   14  A    between atoms: N2_44  and  C37_45
REMARK   15  A    between atoms: O4_46  and  C38_47
REMARK   16  A    between atoms: O5_48  and  C39_49
REMARK   17  A    between atoms: O6_50  and  C40_51
REMARK                            x       y       z     vdW  Elec       q    Type
REMARK                         _______ _______ _______ _____ _____    ______ ____
ROOT
ATOM     12  C   UNL     1      47.497  16.676  18.218  0.00  0.00    -0.061 A 
ATOM     13  C   UNL     1      48.641  15.882  18.129  0.00  0.00    -0.051 A 
ATOM     14  C   UNL     1      48.641  14.617  18.647  0.00  0.00    -0.108 A 
ATOM     15  C   UNL     1      49.797  13.671  18.653  0.00  0.00    +0.301 C 
ATOM     16  C   UNL     1      51.087  14.237  19.140  0.00  0.00    -0.136 A 
ATOM     17  C   UNL     1      51.673  13.877  20.333  0.00  0.00    +0.015 A 
ATOM     18  C   UNL     1      52.889  14.438  20.696  0.00  0.00    +0.115 A 
ATOM     21  C   UNL     1      53.517  15.356  19.859  0.00  0.00    +0.131 A 
ATOM     24  C   UNL     1      52.916  15.723  18.661  0.00  0.00    -0.005 A 
ATOM     25  C   UNL     1      51.708  15.172  18.318  0.00  0.00    -0.072 A 
ATOM     26  C   UNL     1      50.935  15.537  17.086  0.00  0.00    +0.070 C 
ATOM     27  C   UNL     1      50.474  14.273  16.378  0.00  0.00    +0.260 C 
ATOM     28  N   UNL     1      50.003  13.233  17.258  0.00  0.00    -0.376 N 
ATOM     29  H   UNL     1      50.670  12.477  17.250  0.00  0.00    +0.425 HD
ATOM     30  C   UNL     1      48.727  12.738  16.726  0.00  0.00    +0.319 C 
ATOM     31  C   UNL     1      47.473  14.134  19.250  0.00  0.00    -0.057 A 
ATOM     32  C   UNL     1      46.338  14.912  19.340  0.00  0.00    +0.116 A 
ATOM     35  C   UNL     1      49.821  16.487  17.442  0.00  0.00    +0.109 C 
ATOM     36  C   UNL     1      46.350  16.205  18.824  0.00  0.00    +0.123 A 
ENDROOT
BRANCH  18  19
ATOM     19  O   UNL     1      53.472  14.087  21.874  0.00  0.00    -0.295 OA
ATOM     20  C   UNL     1      54.123  12.816  21.923  0.00  0.00    +0.249 C 
ENDBRANCH  18  19
BRANCH  21  22
ATOM     22  O   UNL     1      54.714  15.894  20.213  0.00  0.00    -0.293 OA
ATOM     23  C   UNL     1      55.871  15.415  19.523  0.00  0.00    +0.248 C 
ENDBRANCH  21  22
BRANCH  32  33
ATOM     33  O   UNL     1      45.217  14.420  19.931  0.00  0.00    -0.297 OA
ATOM     34  C   UNL     1      45.395  13.647  21.119  0.00  0.00    +0.245 C 
ENDBRANCH  32  33
BRANCH  36  37
ATOM     37  O   UNL     1      45.245  16.992  18.913  0.00  0.00    -0.291 OA
ATOM     38  C   UNL     1      44.727  17.236  20.222  0.00  0.00    +0.225 C 
ENDBRANCH  36  37
BRANCH  12  11
ATOM     11  C   UNL     1      47.517  18.071  17.649  0.00  0.00    +0.147 C 
BRANCH  11  10
ATOM      1  C   UNL     1      44.331  23.266  21.823  0.00  0.00    +0.192 C 
ATOM      2  N   UNL     1      45.560  22.606  21.361  0.00  0.00    -0.522 NA
ATOM      3  C   UNL     1      46.428  22.255  22.497  0.00  0.00    +0.172 C 
ATOM      4  C   UNL     1      47.819  21.919  21.958  0.00  0.00    +0.087 C 
ATOM      5  C   UNL     1      47.709  20.921  20.835  0.00  0.00    -0.015 A 
ATOM      6  C   UNL     1      48.847  20.225  20.456  0.00  0.00    -0.082 A 
ATOM      7  C   UNL     1      48.790  19.301  19.426  0.00  0.00    +0.146 A 
ATOM     10  C   UNL     1      47.588  19.072  18.773  0.00  0.00    -0.122 A 
ATOM     39  C   UNL     1      46.457  19.764  19.154  0.00  0.00    +0.048 A 
ATOM     40  C   UNL     1      46.513  20.688  20.188  0.00  0.00    -0.112 A 
ATOM     41  C   UNL     1      45.249  21.411  20.571  0.00  0.00    +0.191 C 
BRANCH   7   8
ATOM      8  O   UNL     1      49.908  18.620  19.057  0.00  0.00    -0.281 OA
ATOM      9  C   UNL     1      51.149  19.324  19.132  0.00  0.00    +0.232 C 
ENDBRANCH   7   8
BRANCH  41  42
ATOM     42  C   UNL     1      44.499  21.824  19.304  0.00  0.00    +0.094 C 
BRANCH  42  43
ATOM     43  C   UNL     1      43.092  21.285  19.355  0.00  0.00    -0.106 A 
ATOM     44  C   UNL     1      42.858  20.007  19.824  0.00  0.00    +0.015 A 
ATOM     45  C   UNL     1      41.568  19.511  19.870  0.00  0.00    +0.004 A 
ATOM     46  C   UNL     1      40.509  20.294  19.448  0.00  0.00    +0.026 A 
ATOM     47  C   UNL     1      40.737  21.573  18.980  0.00  0.00    -0.017 A 
ATOM     48  C   UNL     1      42.030  22.074  18.936  0.00  0.00    +0.108 A 
BRANCH  48  49
ATOM     49  O   UNL     1      42.258  23.335  18.481  0.00  0.00    -0.491 OA
ATOM     50  H   UNL     1      41.632  23.627  17.805  0.00  0.00    +0.380 HD
ENDBRANCH  48  49
ENDBRANCH  42  43
ENDBRANCH  41  42
ENDBRANCH  11  10
ENDBRANCH  12  11
TORSDOF 10
ENDMDL
MODEL 9
REMARK VINA RESULT:      -5.4      2.372      5.512
REMARK  Name = ZINC95485886
REMARK  17 active torsions:
REMARK  status: ('A' for Active; 'I' for Inactive)
REMARK    1  A    between atoms: C1_1  and  N1_2
REMARK    2  A    between atoms: C6_7  and  O6_50
REMARK    3  A    between atoms: C7_8  and  C18_21
REMARK    4  A    between atoms: C10_11  and  C11_13
REMARK    5  A    between atoms: C11_13  and  C12_14
REMARK    6  A    between atoms: C17_19  and  O1_20
REMARK    7  A    between atoms: C18_21  and  C19_22
REMARK    8  A    between atoms: C23_26  and  O3_30
REMARK    9  A    between atoms: C24_27  and  O2_28
REMARK   10  A    between atoms: O2_28  and  C25_29
REMARK   11  A    between atoms: O3_30  and  C26_31
REMARK   12  A    between atoms: C30_36  and  O5_48
REMARK   13  A    between atoms: C31_37  and  O4_46
REMARK   14  A    between atoms: N2_44  and  C37_45
REMARK   15  A    between atoms: O4_46  and  C38_47
REMARK   16  A    between atoms: O5_48  and  C39_49
REMARK   17  A    between atoms: O6_50  and  C40_51
REMARK                            x       y       z     vdW  Elec       q    Type
REMARK                         _______ _______ _______ _____ _____    ______ ____
ROOT
ATOM     12  C   UNL     1      49.732  15.273  20.628  0.00  0.00    -0.061 A 
ATOM     13  C   UNL     1      49.665  14.097  19.880  0.00  0.00    -0.051 A 
ATOM     14  C   UNL     1      50.529  13.892  18.842  0.00  0.00    -0.108 A 
ATOM     15  C   UNL     1      50.550  12.701  17.940  0.00  0.00    +0.301 C 
ATOM     16  C   UNL     1      49.232  12.306  17.366  0.00  0.00    -0.136 A 
ATOM     17  C   UNL     1      48.908  12.448  16.036  0.00  0.00    +0.015 A 
ATOM     18  C   UNL     1      47.665  12.029  15.585  0.00  0.00    +0.115 A 
ATOM     21  C   UNL     1      46.750  11.466  16.470  0.00  0.00    +0.131 A 
ATOM     24  C   UNL     1      47.079  11.335  17.814  0.00  0.00    -0.005 A 
ATOM     25  C   UNL     1      48.306  11.764  18.251  0.00  0.00    -0.072 A 
ATOM     26  C   UNL     1      48.748  11.732  19.684  0.00  0.00    +0.070 C 
ATOM     27  C   UNL     1      50.142  11.135  19.776  0.00  0.00    +0.260 C 
ATOM     28  N   UNL     1      51.047  11.564  18.739  0.00  0.00    -0.376 N 
ATOM     29  H   UNL     1      51.223  10.786  18.122  0.00  0.00    +0.425 HD
ATOM     30  C   UNL     1      52.311  11.952  19.377  0.00  0.00    +0.319 C 
ATOM     31  C   UNL     1      51.486  14.873  18.556  0.00  0.00    -0.057 A 
ATOM     32  C   UNL     1      51.561  16.037  19.291  0.00  0.00    +0.116 A 
ATOM     35  C   UNL     1      48.623  13.108  20.289  0.00  0.00    +0.109 C 
ATOM     36  C   UNL     1      50.667  16.247  20.337  0.00  0.00    +0.123 A 
ENDROOT
BRANCH  18  19
ATOM     19  O   UNL     1      47.338  12.168  14.272  0.00  0.00    -0.295 OA
ATOM     20  C   UNL     1      48.250  12.902  13.451  0.00  0.00    +0.249 C 
ENDBRANCH  18  19
BRANCH  21  22
ATOM     22  O   UNL     1      45.537  11.047  16.022  0.00  0.00    -0.293 OA
ATOM     23  C   UNL     1      44.388  11.748  16.505  0.00  0.00    +0.248 C 
ENDBRANCH  21  22
BRANCH  32  33
ATOM     33  O   UNL     1      52.499  16.975  18.993  0.00  0.00    -0.297 OA
ATOM     34  C   UNL     1      52.214  17.858  17.907  0.00  0.00    +0.245 C 
ENDBRANCH  32  33
BRANCH  36  37
ATOM     37  O   UNL     1      50.717  17.393  21.067  0.00  0.00    -0.291 OA
ATOM     38  C   UNL     1      51.619  17.418  22.175  0.00  0.00    +0.225 C 
ENDBRANCH  36  37
BRANCH  12  11
ATOM     11  C   UNL     1      48.767  15.487  21.764  0.00  0.00    +0.147 C 
BRANCH  11  10
ATOM      1  C   UNL     1      45.584  21.692  19.329  0.00  0.00    +0.192 C 
ATOM      2  N   UNL     1      45.436  20.332  19.864  0.00  0.00    -0.522 NA
ATOM      3  C   UNL     1      44.480  19.551  19.060  0.00  0.00    +0.172 C 
ATOM      4  C   UNL     1      44.089  18.303  19.851  0.00  0.00    +0.087 C 
ATOM      5  C   UNL     1      45.325  17.593  20.341  0.00  0.00    -0.015 A 
ATOM      6  C   UNL     1      45.209  16.277  20.760  0.00  0.00    -0.082 A 
ATOM      7  C   UNL     1      46.320  15.590  21.221  0.00  0.00    +0.146 A 
ATOM     10  C   UNL     1      47.553  16.224  21.261  0.00  0.00    -0.122 A 
ATOM     39  C   UNL     1      47.665  17.534  20.841  0.00  0.00    +0.048 A 
ATOM     40  C   UNL     1      46.553  18.221  20.377  0.00  0.00    -0.112 A 
ATOM     41  C   UNL     1      46.730  19.646  19.922  0.00  0.00    +0.191 C 
BRANCH   7   8
ATOM      8  O   UNL     1      46.203  14.299  21.631  0.00  0.00    -0.281 OA
ATOM      9  C   UNL     1      45.088  13.984  22.468  0.00  0.00    +0.232 C 
ENDBRANCH   7   8
BRANCH  41  42
ATOM     42  C   UNL     1      47.646  20.379  20.902  0.00  0.00    +0.094 C 
BRANCH  42  43
ATOM     43  C   UNL     1      48.975  20.650  20.243  0.00  0.00    -0.106 A 
ATOM     44  C   UNL     1      49.050  20.776  18.869  0.00  0.00    +0.015 A 
ATOM     45  C   UNL     1      50.268  21.024  18.263  0.00  0.00    +0.004 A 
ATOM     46  C   UNL     1      51.413  21.146  19.029  0.00  0.00    +0.026 A 
ATOM     47  C   UNL     1      51.342  21.021  20.403  0.00  0.00    -0.017 A 
ATOM     48  C   UNL     1      50.120  20.777  21.014  0.00  0.00    +0.108 A 
BRANCH  48  49
ATOM     49  O   UNL     1      50.047  20.658  22.367  0.00  0.00    -0.491 OA
ATOM     50  H   UNL     1      50.073  21.502  22.837  0.00  0.00    +0.380 HD
ENDBRANCH  48  49
ENDBRANCH  42  43
ENDBRANCH  41  42
ENDBRANCH  11  10
ENDBRANCH  12  11
TORSDOF 10
ENDMDL
