MODEL 1
REMARK VINA RESULT:      -6.9      0.000      0.000
REMARK  Name = ZINC95486090
REMARK  9 active torsions:
REMARK  status: ('A' for Active; 'I' for Inactive)
REMARK    1  A    between atoms: C1_1  and  C2_2
REMARK    2  A    between atoms: C5_5  and  C29_34
REMARK    3  A    between atoms: C5_5  and  C30_35
REMARK    4  A    between atoms: C8_9  and  C28_33
REMARK    5  A    between atoms: C12_14  and  C27_32
REMARK    6  A    between atoms: C15_17  and  O1_31
REMARK    7  A    between atoms: C16_19  and  C25_29
REMARK    8  A    between atoms: C16_19  and  C26_30
REMARK    9  A    between atoms: C20_24  and  C24_28
REMARK                            x       y       z     vdW  Elec       q    Type
REMARK                         _______ _______ _______ _____ _____    ______ ____
ROOT
ATOM      1  C   UNL     1      46.635  12.197  17.025  0.00  0.00    +0.024 C 
ATOM      2  C   UNL     1      47.894  12.448  17.850  0.00  0.00    -0.051 C 
ATOM      3  C   UNL     1      48.868  11.403  17.569  0.00  0.00    +0.015 C 
ATOM      4  C   UNL     1      49.295  11.398  16.140  0.00  0.00    +0.013 C 
ATOM      5  C   UNL     1      49.898  12.735  15.736  0.00  0.00    -0.054 C 
ATOM      6  C   UNL     1      51.238  12.906  16.492  0.00  0.00    +0.020 C 
ATOM      7  C   UNL     1      50.166  12.758  14.224  0.00  0.00    +0.015 C 
ATOM      8  C   UNL     1      48.984  13.826  16.017  0.00  0.00    +0.022 C 
ATOM      9  C   UNL     1      47.490  12.457  19.387  0.00  0.00    +0.050 C 
ATOM     10  C   UNL     1      46.848  13.772  19.787  0.00  0.00    -0.045 C 
ATOM     11  C   UNL     1      47.067  14.885  19.202  0.00  0.00    -0.084 C 
ATOM     12  C   UNL     1      46.510  16.127  19.923  0.00  0.00    -0.021 C 
ATOM     13  C   UNL     1      47.369  16.183  21.227  0.00  0.00    +0.024 C 
ATOM     14  C   UNL     1      45.051  15.885  20.314  0.00  0.00    +0.039 C 
ATOM     15  C   UNL     1      44.527  17.159  20.952  0.00  0.00    +0.014 C 
ATOM     16  C   UNL     1      44.627  18.331  19.903  0.00  0.00    -0.017 C 
ATOM     17  C   UNL     1      43.738  19.538  20.203  0.00  0.00    -0.038 C 
ATOM     18  C   UNL     1      43.898  20.036  21.664  0.00  0.00    +0.040 C 
ATOM     19  C   UNL     1      42.233  19.120  20.039  0.00  0.00    +0.019 C 
ATOM     20  C   UNL     1      43.948  20.598  19.211  0.00  0.00    +0.168 C 
ATOM     23  C   UNL     1      45.455  20.977  18.940  0.00  0.00    -0.007 C 
ATOM     24  C   UNL     1      46.101  19.705  18.452  0.00  0.00    +0.003 C 
ATOM     25  C   UNL     1      46.058  18.586  19.621  0.00  0.00    -0.035 C 
ATOM     26  C   UNL     1      46.867  19.178  20.821  0.00  0.00    +0.034 C 
ATOM     27  C   UNL     1      46.651  17.356  19.026  0.00  0.00    +0.010 C 
ATOM     28  C   UNL     1      48.127  17.495  18.558  0.00  0.00    +0.007 C 
ATOM     29  C   UNL     1      48.686  16.205  17.938  0.00  0.00    +0.012 C 
ATOM     30  C   UNL     1      47.715  15.047  17.905  0.00  0.00    +0.008 C 
ATOM     31  C   UNL     1      46.705  15.303  16.804  0.00  0.00    +0.028 C 
ATOM     32  C   UNL     1      48.548  13.800  17.535  0.00  0.00    -0.011 C 
ENDROOT
BRANCH  20  21
ATOM     21  O   UNL     1      43.318  21.787  19.726  0.00  0.00    -0.572 OA
ATOM     22  H   UNL     1      42.386  21.671  19.958  0.00  0.00    +0.371 HD
ENDBRANCH  20  21
TORSDOF 1
ENDMDL
MODEL 2
REMARK VINA RESULT:      -6.5      2.717      7.817
REMARK  Name = ZINC95486090
REMARK  9 active torsions:
REMARK  status: ('A' for Active; 'I' for Inactive)
REMARK    1  A    between atoms: C1_1  and  C2_2
REMARK    2  A    between atoms: C5_5  and  C29_34
REMARK    3  A    between atoms: C5_5  and  C30_35
REMARK    4  A    between atoms: C8_9  and  C28_33
REMARK    5  A    between atoms: C12_14  and  C27_32
REMARK    6  A    between atoms: C15_17  and  O1_31
REMARK    7  A    between atoms: C16_19  and  C25_29
REMARK    8  A    between atoms: C16_19  and  C26_30
REMARK    9  A    between atoms: C20_24  and  C24_28
REMARK                            x       y       z     vdW  Elec       q    Type
REMARK                         _______ _______ _______ _____ _____    ______ ____
ROOT
ATOM      1  C   UNL     1      45.902  18.156  22.063  0.00  0.00    +0.024 C 
ATOM      2  C   UNL     1      44.747  17.804  21.130  0.00  0.00    -0.051 C 
ATOM      3  C   UNL     1      43.649  18.734  21.354  0.00  0.00    +0.015 C 
ATOM      4  C   UNL     1      44.028  20.142  21.042  0.00  0.00    +0.013 C 
ATOM      5  C   UNL     1      44.490  20.286  19.600  0.00  0.00    -0.054 C 
ATOM      6  C   UNL     1      43.268  20.049  18.679  0.00  0.00    +0.020 C 
ATOM      7  C   UNL     1      45.036  21.701  19.358  0.00  0.00    +0.015 C 
ATOM      8  C   UNL     1      45.569  19.362  19.303  0.00  0.00    +0.022 C 
ATOM      9  C   UNL     1      44.301  16.308  21.431  0.00  0.00    +0.050 C 
ATOM     10  C   UNL     1      45.248  15.308  20.795  0.00  0.00    -0.045 C 
ATOM     11  C   UNL     1      45.951  15.543  19.757  0.00  0.00    -0.084 C 
ATOM     12  C   UNL     1      46.645  14.314  19.140  0.00  0.00    -0.021 C 
ATOM     13  C   UNL     1      45.443  13.461  18.625  0.00  0.00    +0.024 C 
ATOM     14  C   UNL     1      47.365  13.525  20.235  0.00  0.00    +0.039 C 
ATOM     15  C   UNL     1      48.092  12.371  19.571  0.00  0.00    +0.014 C 
ATOM     16  C   UNL     1      49.133  12.953  18.540  0.00  0.00    -0.017 C 
ATOM     17  C   UNL     1      50.246  11.985  18.137  0.00  0.00    -0.038 C 
ATOM     18  C   UNL     1      49.692  10.601  17.703  0.00  0.00    +0.040 C 
ATOM     19  C   UNL     1      51.172  11.723  19.377  0.00  0.00    +0.019 C 
ATOM     20  C   UNL     1      51.123  12.591  17.129  0.00  0.00    +0.168 C 
ATOM     23  C   UNL     1      50.383  13.249  15.901  0.00  0.00    -0.007 C 
ATOM     24  C   UNL     1      49.499  14.315  16.496  0.00  0.00    +0.003 C 
ATOM     25  C   UNL     1      48.388  13.631  17.455  0.00  0.00    -0.035 C 
ATOM     26  C   UNL     1      47.549  12.680  16.541  0.00  0.00    +0.034 C 
ATOM     27  C   UNL     1      47.614  14.759  18.045  0.00  0.00    +0.010 C 
ATOM     28  C   UNL     1      46.866  15.654  17.018  0.00  0.00    +0.007 C 
ATOM     29  C   UNL     1      46.097  16.811  17.675  0.00  0.00    +0.012 C 
ATOM     30  C   UNL     1      46.198  16.862  19.182  0.00  0.00    +0.008 C 
ATOM     31  C   UNL     1      47.572  17.383  19.551  0.00  0.00    +0.028 C 
ATOM     32  C   UNL     1      45.137  17.883  19.648  0.00  0.00    -0.011 C 
ENDROOT
BRANCH  20  21
ATOM     21  O   UNL     1      51.941  11.533  16.591  0.00  0.00    -0.572 OA
ATOM     22  H   UNL     1      52.216  10.877  17.245  0.00  0.00    +0.371 HD
ENDBRANCH  20  21
TORSDOF 1
ENDMDL
MODEL 3
REMARK VINA RESULT:      -6.5      2.903      8.074
REMARK  Name = ZINC95486090
REMARK  9 active torsions:
REMARK  status: ('A' for Active; 'I' for Inactive)
REMARK    1  A    between atoms: C1_1  and  C2_2
REMARK    2  A    between atoms: C5_5  and  C29_34
REMARK    3  A    between atoms: C5_5  and  C30_35
REMARK    4  A    between atoms: C8_9  and  C28_33
REMARK    5  A    between atoms: C12_14  and  C27_32
REMARK    6  A    between atoms: C15_17  and  O1_31
REMARK    7  A    between atoms: C16_19  and  C25_29
REMARK    8  A    between atoms: C16_19  and  C26_30
REMARK    9  A    between atoms: C20_24  and  C24_28
REMARK                            x       y       z     vdW  Elec       q    Type
REMARK                         _______ _______ _______ _____ _____    ______ ____
ROOT
ATOM      1  C   UNL     1      47.839  19.917  18.801  0.00  0.00    +0.024 C 
ATOM      2  C   UNL     1      47.316  19.011  19.911  0.00  0.00    -0.051 C 
ATOM      3  C   UNL     1      46.576  19.812  20.876  0.00  0.00    +0.015 C 
ATOM      4  C   UNL     1      45.381  20.466  20.269  0.00  0.00    +0.013 C 
ATOM      5  C   UNL     1      44.431  19.440  19.670  0.00  0.00    -0.054 C 
ATOM      6  C   UNL     1      43.818  18.618  20.830  0.00  0.00    +0.020 C 
ATOM      7  C   UNL     1      43.304  20.147  18.904  0.00  0.00    +0.015 C 
ATOM      8  C   UNL     1      45.117  18.588  18.716  0.00  0.00    +0.022 C 
ATOM      9  C   UNL     1      48.559  18.293  20.596  0.00  0.00    +0.050 C 
ATOM     10  C   UNL     1      49.065  17.136  19.756  0.00  0.00    -0.045 C 
ATOM     11  C   UNL     1      48.344  16.471  18.939  0.00  0.00    -0.084 C 
ATOM     12  C   UNL     1      48.991  15.189  18.383  0.00  0.00    -0.021 C 
ATOM     13  C   UNL     1      49.104  14.282  19.649  0.00  0.00    +0.024 C 
ATOM     14  C   UNL     1      50.403  15.500  17.883  0.00  0.00    +0.039 C 
ATOM     15  C   UNL     1      50.969  14.228  17.279  0.00  0.00    +0.014 C 
ATOM     16  C   UNL     1      50.049  13.782  16.080  0.00  0.00    -0.017 C 
ATOM     17  C   UNL     1      50.706  12.819  15.091  0.00  0.00    -0.038 C 
ATOM     18  C   UNL     1      51.378  11.614  15.803  0.00  0.00    +0.040 C 
ATOM     19  C   UNL     1      51.848  13.573  14.322  0.00  0.00    +0.019 C 
ATOM     20  C   UNL     1      49.754  12.411  14.052  0.00  0.00    +0.168 C 
ATOM     23  C   UNL     1      48.353  11.914  14.579  0.00  0.00    -0.007 C 
ATOM     24  C   UNL     1      47.783  13.080  15.345  0.00  0.00    +0.003 C 
ATOM     25  C   UNL     1      48.722  13.409  16.622  0.00  0.00    -0.035 C 
ATOM     26  C   UNL     1      48.715  12.122  17.510  0.00  0.00    +0.034 C 
ATOM     27  C   UNL     1      48.120  14.607  17.270  0.00  0.00    +0.010 C 
ATOM     28  C   UNL     1      46.668  14.418  17.788  0.00  0.00    +0.007 C 
ATOM     29  C   UNL     1      46.088  15.686  18.432  0.00  0.00    +0.012 C 
ATOM     30  C   UNL     1      47.027  16.871  18.453  0.00  0.00    +0.008 C 
ATOM     31  C   UNL     1      47.099  17.447  17.054  0.00  0.00    +0.028 C 
ATOM     32  C   UNL     1      46.378  17.915  19.388  0.00  0.00    -0.011 C 
ENDROOT
BRANCH  20  21
ATOM     21  O   UNL     1      50.344  11.295  13.355  0.00  0.00    -0.572 OA
ATOM     22  H   UNL     1      49.703  10.639  13.048  0.00  0.00    +0.371 HD
ENDBRANCH  20  21
TORSDOF 1
ENDMDL
MODEL 4
REMARK VINA RESULT:      -6.4      2.660      7.953
REMARK  Name = ZINC95486090
REMARK  9 active torsions:
REMARK  status: ('A' for Active; 'I' for Inactive)
REMARK    1  A    between atoms: C1_1  and  C2_2
REMARK    2  A    between atoms: C5_5  and  C29_34
REMARK    3  A    between atoms: C5_5  and  C30_35
REMARK    4  A    between atoms: C8_9  and  C28_33
REMARK    5  A    between atoms: C12_14  and  C27_32
REMARK    6  A    between atoms: C15_17  and  O1_31
REMARK    7  A    between atoms: C16_19  and  C25_29
REMARK    8  A    between atoms: C16_19  and  C26_30
REMARK    9  A    between atoms: C20_24  and  C24_28
REMARK                            x       y       z     vdW  Elec       q    Type
REMARK                         _______ _______ _______ _____ _____    ______ ____
ROOT
ATOM      1  C   UNL     1      47.380  20.258  18.743  0.00  0.00    +0.024 C 
ATOM      2  C   UNL     1      47.031  19.588  20.069  0.00  0.00    -0.051 C 
ATOM      3  C   UNL     1      46.508  20.588  20.989  0.00  0.00    +0.015 C 
ATOM      4  C   UNL     1      45.250  21.212  20.489  0.00  0.00    +0.013 C 
ATOM      5  C   UNL     1      44.168  20.169  20.251  0.00  0.00    -0.054 C 
ATOM      6  C   UNL     1      43.744  19.596  21.626  0.00  0.00    +0.020 C 
ATOM      7  C   UNL     1      42.950  20.815  19.577  0.00  0.00    +0.015 C 
ATOM      8  C   UNL     1      44.638  19.124  19.361  0.00  0.00    +0.022 C 
ATOM      9  C   UNL     1      48.348  18.910  20.647  0.00  0.00    +0.050 C 
ATOM     10  C   UNL     1      48.650  17.597  19.950  0.00  0.00    -0.045 C 
ATOM     11  C   UNL     1      47.769  16.857  19.399  0.00  0.00    -0.084 C 
ATOM     12  C   UNL     1      48.255  15.459  18.975  0.00  0.00    -0.021 C 
ATOM     13  C   UNL     1      48.559  14.770  20.343  0.00  0.00    +0.024 C 
ATOM     14  C   UNL     1      49.565  15.584  18.195  0.00  0.00    +0.039 C 
ATOM     15  C   UNL     1      49.964  14.193  17.736  0.00  0.00    +0.014 C 
ATOM     16  C   UNL     1      48.826  13.617  16.810  0.00  0.00    -0.017 C 
ATOM     17  C   UNL     1      49.257  12.460  15.909  0.00  0.00    -0.038 C 
ATOM     18  C   UNL     1      49.999  11.347  16.697  0.00  0.00    +0.040 C 
ATOM     19  C   UNL     1      50.270  12.995  14.836  0.00  0.00    +0.019 C 
ATOM     20  C   UNL     1      48.118  11.951  15.136  0.00  0.00    +0.168 C 
ATOM     23  C   UNL     1      46.817  11.647  15.974  0.00  0.00    -0.007 C 
ATOM     24  C   UNL     1      46.439  12.961  16.609  0.00  0.00    +0.003 C 
ATOM     25  C   UNL     1      47.605  13.432  17.628  0.00  0.00    -0.035 C 
ATOM     26  C   UNL     1      47.709  12.316  18.717  0.00  0.00    +0.034 C 
ATOM     27  C   UNL     1      47.176  14.761  18.147  0.00  0.00    +0.010 C 
ATOM     28  C   UNL     1      45.835  14.761  18.931  0.00  0.00    +0.007 C 
ATOM     29  C   UNL     1      45.429  16.156  19.431  0.00  0.00    +0.012 C 
ATOM     30  C   UNL     1      46.402  17.260  19.082  0.00  0.00    +0.008 C 
ATOM     31  C   UNL     1      46.243  17.589  17.612  0.00  0.00    +0.028 C 
ATOM     32  C   UNL     1      45.973  18.487  19.915  0.00  0.00    -0.011 C 
ENDROOT
BRANCH  20  21
ATOM     21  O   UNL     1      48.530  10.697  14.557  0.00  0.00    -0.572 OA
ATOM     22  H   UNL     1      49.160  10.787  13.829  0.00  0.00    +0.371 HD
ENDBRANCH  20  21
TORSDOF 1
ENDMDL
MODEL 5
REMARK VINA RESULT:      -6.3      2.804      7.996
REMARK  Name = ZINC95486090
REMARK  9 active torsions:
REMARK  status: ('A' for Active; 'I' for Inactive)
REMARK    1  A    between atoms: C1_1  and  C2_2
REMARK    2  A    between atoms: C5_5  and  C29_34
REMARK    3  A    between atoms: C5_5  and  C30_35
REMARK    4  A    between atoms: C8_9  and  C28_33
REMARK    5  A    between atoms: C12_14  and  C27_32
REMARK    6  A    between atoms: C15_17  and  O1_31
REMARK    7  A    between atoms: C16_19  and  C25_29
REMARK    8  A    between atoms: C16_19  and  C26_30
REMARK    9  A    between atoms: C20_24  and  C24_28
REMARK                            x       y       z     vdW  Elec       q    Type
REMARK                         _______ _______ _______ _____ _____    ______ ____
ROOT
ATOM      1  C   UNL     1      46.953  19.262  19.729  0.00  0.00    +0.024 C 
ATOM      2  C   UNL     1      46.584  18.330  20.879  0.00  0.00    -0.051 C 
ATOM      3  C   UNL     1      45.889  19.090  21.909  0.00  0.00    +0.015 C 
ATOM      4  C   UNL     1      44.610  19.674  21.413  0.00  0.00    +0.013 C 
ATOM      5  C   UNL     1      43.669  18.595  20.899  0.00  0.00    -0.054 C 
ATOM      6  C   UNL     1      43.211  17.743  22.108  0.00  0.00    +0.020 C 
ATOM      7  C   UNL     1      42.440  19.236  20.240  0.00  0.00    +0.015 C 
ATOM      8  C   UNL     1      44.314  17.780  19.886  0.00  0.00    +0.022 C 
ATOM      9  C   UNL     1      47.922  17.685  21.447  0.00  0.00    +0.050 C 
ATOM     10  C   UNL     1      48.414  16.556  20.562  0.00  0.00    -0.045 C 
ATOM     11  C   UNL     1      47.662  15.850  19.812  0.00  0.00    -0.084 C 
ATOM     12  C   UNL     1      48.328  14.605  19.197  0.00  0.00    -0.021 C 
ATOM     13  C   UNL     1      48.604  13.709  20.445  0.00  0.00    +0.024 C 
ATOM     14  C   UNL     1      49.669  14.994  18.573  0.00  0.00    +0.039 C 
ATOM     15  C   UNL     1      50.250  13.755  17.917  0.00  0.00    +0.014 C 
ATOM     16  C   UNL     1      49.251  13.254  16.804  0.00  0.00    -0.017 C 
ATOM     17  C   UNL     1      49.871  12.327  15.757  0.00  0.00    -0.038 C 
ATOM     18  C   UNL     1      50.670  11.164  16.403  0.00  0.00    +0.040 C 
ATOM     19  C   UNL     1      50.895  13.143  14.891  0.00  0.00    +0.019 C 
ATOM     20  C   UNL     1      48.854  11.864  14.807  0.00  0.00    +0.168 C 
ATOM     23  C   UNL     1      47.536  11.290  15.457  0.00  0.00    -0.007 C 
ATOM     24  C   UNL     1      46.972  12.424  16.274  0.00  0.00    +0.003 C 
ATOM     25  C   UNL     1      48.002  12.808  17.462  0.00  0.00    -0.035 C 
ATOM     26  C   UNL     1      48.148  11.526  18.344  0.00  0.00    +0.034 C 
ATOM     27  C   UNL     1      47.394  13.972  18.165  0.00  0.00    +0.010 C 
ATOM     28  C   UNL     1      46.007  13.702  18.811  0.00  0.00    +0.007 C 
ATOM     29  C   UNL     1      45.417  14.938  19.508  0.00  0.00    +0.012 C 
ATOM     30  C   UNL     1      46.286  16.173  19.448  0.00  0.00    +0.008 C 
ATOM     31  C   UNL     1      46.199  16.750  18.049  0.00  0.00    +0.028 C 
ATOM     32  C   UNL     1      45.666  17.182  20.440  0.00  0.00    -0.011 C 
ENDROOT
BRANCH  20  21
ATOM     21  O   UNL     1      49.440  10.781  14.057  0.00  0.00    -0.572 OA
ATOM     22  H   UNL     1      49.344   9.915  14.476  0.00  0.00    +0.371 HD
ENDBRANCH  20  21
TORSDOF 1
ENDMDL
MODEL 6
REMARK VINA RESULT:      -6.3      3.505      5.085
REMARK  Name = ZINC95486090
REMARK  9 active torsions:
REMARK  status: ('A' for Active; 'I' for Inactive)
REMARK    1  A    between atoms: C1_1  and  C2_2
REMARK    2  A    between atoms: C5_5  and  C29_34
REMARK    3  A    between atoms: C5_5  and  C30_35
REMARK    4  A    between atoms: C8_9  and  C28_33
REMARK    5  A    between atoms: C12_14  and  C27_32
REMARK    6  A    between atoms: C15_17  and  O1_31
REMARK    7  A    between atoms: C16_19  and  C25_29
REMARK    8  A    between atoms: C16_19  and  C26_30
REMARK    9  A    between atoms: C20_24  and  C24_28
REMARK                            x       y       z     vdW  Elec       q    Type
REMARK                         _______ _______ _______ _____ _____    ______ ____
ROOT
ATOM      1  C   UNL     1      49.719  17.547  17.958  0.00  0.00    +0.024 C 
ATOM      2  C   UNL     1      49.917  17.815  19.447  0.00  0.00    -0.051 C 
ATOM      3  C   UNL     1      51.302  17.539  19.803  0.00  0.00    +0.015 C 
ATOM      4  C   UNL     1      52.259  18.429  19.084  0.00  0.00    +0.013 C 
ATOM      5  C   UNL     1      51.974  19.896  19.369  0.00  0.00    -0.054 C 
ATOM      6  C   UNL     1      52.306  20.169  20.857  0.00  0.00    +0.020 C 
ATOM      7  C   UNL     1      52.858  20.787  18.485  0.00  0.00    +0.015 C 
ATOM      8  C   UNL     1      50.597  20.230  19.060  0.00  0.00    +0.022 C 
ATOM      9  C   UNL     1      48.919  16.881  20.259  0.00  0.00    +0.050 C 
ATOM     10  C   UNL     1      47.507  17.435  20.248  0.00  0.00    -0.045 C 
ATOM     11  C   UNL     1      47.220  18.671  20.112  0.00  0.00    -0.084 C 
ATOM     12  C   UNL     1      45.749  19.037  20.381  0.00  0.00    -0.021 C 
ATOM     13  C   UNL     1      45.596  18.756  21.909  0.00  0.00    +0.024 C 
ATOM     14  C   UNL     1      44.832  18.081  19.617  0.00  0.00    +0.039 C 
ATOM     15  C   UNL     1      43.400  18.527  19.853  0.00  0.00    +0.014 C 
ATOM     16  C   UNL     1      43.231  19.998  19.311  0.00  0.00    -0.017 C 
ATOM     17  C   UNL     1      41.786  20.421  19.045  0.00  0.00    -0.038 C 
ATOM     18  C   UNL     1      40.856  20.123  20.251  0.00  0.00    +0.040 C 
ATOM     19  C   UNL     1      41.223  19.593  17.836  0.00  0.00    +0.019 C 
ATOM     20  C   UNL     1      41.726  21.820  18.609  0.00  0.00    +0.168 C 
ATOM     23  C   UNL     1      42.528  22.841  19.506  0.00  0.00    -0.007 C 
ATOM     24  C   UNL     1      43.958  22.367  19.462  0.00  0.00    +0.003 C 
ATOM     25  C   UNL     1      44.069  20.899  20.134  0.00  0.00    -0.035 C 
ATOM     26  C   UNL     1      43.598  21.061  21.616  0.00  0.00    +0.034 C 
ATOM     27  C   UNL     1      45.494  20.491  19.982  0.00  0.00    +0.010 C 
ATOM     28  C   UNL     1      46.524  21.415  20.691  0.00  0.00    +0.007 C 
ATOM     29  C   UNL     1      47.978  20.961  20.490  0.00  0.00    +0.012 C 
ATOM     30  C   UNL     1      48.141  19.709  19.659  0.00  0.00    +0.008 C 
ATOM     31  C   UNL     1      47.907  20.067  18.206  0.00  0.00    +0.028 C 
ATOM     32  C   UNL     1      49.611  19.268  19.832  0.00  0.00    -0.011 C 
ENDROOT
BRANCH  20  21
ATOM     21  O   UNL     1      40.344  22.222  18.673  0.00  0.00    -0.572 OA
ATOM     22  H   UNL     1      39.735  21.613  18.233  0.00  0.00    +0.371 HD
ENDBRANCH  20  21
TORSDOF 1
ENDMDL
MODEL 7
REMARK VINA RESULT:      -6.2      1.724      3.684
REMARK  Name = ZINC95486090
REMARK  9 active torsions:
REMARK  status: ('A' for Active; 'I' for Inactive)
REMARK    1  A    between atoms: C1_1  and  C2_2
REMARK    2  A    between atoms: C5_5  and  C29_34
REMARK    3  A    between atoms: C5_5  and  C30_35
REMARK    4  A    between atoms: C8_9  and  C28_33
REMARK    5  A    between atoms: C12_14  and  C27_32
REMARK    6  A    between atoms: C15_17  and  O1_31
REMARK    7  A    between atoms: C16_19  and  C25_29
REMARK    8  A    between atoms: C16_19  and  C26_30
REMARK    9  A    between atoms: C20_24  and  C24_28
REMARK                            x       y       z     vdW  Elec       q    Type
REMARK                         _______ _______ _______ _____ _____    ______ ____
ROOT
ATOM      1  C   UNL     1      51.008  14.927  19.450  0.00  0.00    +0.024 C 
ATOM      2  C   UNL     1      49.999  14.496  18.390  0.00  0.00    -0.051 C 
ATOM      3  C   UNL     1      50.417  13.223  17.819  0.00  0.00    +0.015 C 
ATOM      4  C   UNL     1      50.453  12.133  18.835  0.00  0.00    +0.013 C 
ATOM      5  C   UNL     1      49.094  11.939  19.490  0.00  0.00    -0.054 C 
ATOM      6  C   UNL     1      48.122  11.380  18.422  0.00  0.00    +0.020 C 
ATOM      7  C   UNL     1      49.203  10.935  20.646  0.00  0.00    +0.015 C 
ATOM      8  C   UNL     1      48.606  13.182  20.057  0.00  0.00    +0.022 C 
ATOM      9  C   UNL     1      49.930  15.629  17.277  0.00  0.00    +0.050 C 
ATOM     10  C   UNL     1      49.092  16.808  17.735  0.00  0.00    -0.045 C 
ATOM     11  C   UNL     1      48.151  16.731  18.593  0.00  0.00    -0.084 C 
ATOM     12  C   UNL     1      47.274  17.990  18.722  0.00  0.00    -0.021 C 
ATOM     13  C   UNL     1      46.551  18.050  17.339  0.00  0.00    +0.024 C 
ATOM     14  C   UNL     1      48.164  19.226  18.857  0.00  0.00    +0.039 C 
ATOM     15  C   UNL     1      47.258  20.428  19.055  0.00  0.00    +0.014 C 
ATOM     16  C   UNL     1      46.411  20.214  20.368  0.00  0.00    -0.017 C 
ATOM     17  C   UNL     1      45.811  21.491  20.958  0.00  0.00    -0.038 C 
ATOM     18  C   UNL     1      45.052  22.329  19.894  0.00  0.00    +0.040 C 
ATOM     19  C   UNL     1      46.969  22.402  21.497  0.00  0.00    +0.019 C 
ATOM     20  C   UNL     1      44.990  21.184  22.135  0.00  0.00    +0.168 C 
ATOM     23  C   UNL     1      43.939  20.024  21.938  0.00  0.00    -0.007 C 
ATOM     24  C   UNL     1      44.754  18.810  21.570  0.00  0.00    +0.003 C 
ATOM     25  C   UNL     1      45.505  19.063  20.159  0.00  0.00    -0.035 C 
ATOM     26  C   UNL     1      44.378  19.299  19.101  0.00  0.00    +0.034 C 
ATOM     27  C   UNL     1      46.331  17.847  19.917  0.00  0.00    +0.010 C 
ATOM     28  C   UNL     1      45.532  16.520  19.796  0.00  0.00    +0.007 C 
ATOM     29  C   UNL     1      46.430  15.295  19.563  0.00  0.00    +0.012 C 
ATOM     30  C   UNL     1      47.909  15.601  19.485  0.00  0.00    +0.008 C 
ATOM     31  C   UNL     1      48.413  15.878  20.887  0.00  0.00    +0.028 C 
ATOM     32  C   UNL     1      48.585  14.316  18.958  0.00  0.00    -0.011 C 
ENDROOT
BRANCH  20  21
ATOM     21  O   UNL     1      44.231  22.371  22.440  0.00  0.00    -0.572 OA
ATOM     22  H   UNL     1      43.600  22.259  23.164  0.00  0.00    +0.371 HD
ENDBRANCH  20  21
TORSDOF 1
ENDMDL
MODEL 8
REMARK VINA RESULT:      -6.1      1.454      1.929
REMARK  Name = ZINC95486090
REMARK  9 active torsions:
REMARK  status: ('A' for Active; 'I' for Inactive)
REMARK    1  A    between atoms: C1_1  and  C2_2
REMARK    2  A    between atoms: C5_5  and  C29_34
REMARK    3  A    between atoms: C5_5  and  C30_35
REMARK    4  A    between atoms: C8_9  and  C28_33
REMARK    5  A    between atoms: C12_14  and  C27_32
REMARK    6  A    between atoms: C15_17  and  O1_31
REMARK    7  A    between atoms: C16_19  and  C25_29
REMARK    8  A    between atoms: C16_19  and  C26_30
REMARK    9  A    between atoms: C20_24  and  C24_28
REMARK                            x       y       z     vdW  Elec       q    Type
REMARK                         _______ _______ _______ _____ _____    ______ ____
ROOT
ATOM      1  C   UNL     1      47.610  12.647  19.153  0.00  0.00    +0.024 C 
ATOM      2  C   UNL     1      48.920  13.271  18.681  0.00  0.00    -0.051 C 
ATOM      3  C   UNL     1      49.743  12.245  18.056  0.00  0.00    +0.015 C 
ATOM      4  C   UNL     1      49.096  11.660  16.848  0.00  0.00    +0.013 C 
ATOM      5  C   UNL     1      48.793  12.728  15.808  0.00  0.00    -0.054 C 
ATOM      6  C   UNL     1      50.139  13.254  15.254  0.00  0.00    +0.020 C 
ATOM      7  C   UNL     1      47.975  12.127  14.656  0.00  0.00    +0.015 C 
ATOM      8  C   UNL     1      47.995  13.799  16.377  0.00  0.00    +0.022 C 
ATOM      9  C   UNL     1      49.653  13.905  19.941  0.00  0.00    +0.050 C 
ATOM     10  C   UNL     1      49.042  15.240  20.326  0.00  0.00    -0.045 C 
ATOM     11  C   UNL     1      48.435  16.014  19.513  0.00  0.00    -0.084 C 
ATOM     12  C   UNL     1      48.119  17.419  20.057  0.00  0.00    -0.021 C 
ATOM     13  C   UNL     1      49.536  18.051  20.229  0.00  0.00    +0.024 C 
ATOM     14  C   UNL     1      47.468  17.304  21.436  0.00  0.00    +0.039 C 
ATOM     15  C   UNL     1      47.108  18.705  21.895  0.00  0.00    +0.014 C 
ATOM     16  C   UNL     1      46.096  19.333  20.863  0.00  0.00    -0.017 C 
ATOM     17  C   UNL     1      45.289  20.518  21.396  0.00  0.00    -0.038 C 
ATOM     18  C   UNL     1      46.190  21.588  22.067  0.00  0.00    +0.040 C 
ATOM     19  C   UNL     1      44.302  20.009  22.505  0.00  0.00    +0.019 C 
ATOM     20  C   UNL     1      44.427  21.073  20.346  0.00  0.00    +0.168 C 
ATOM     23  C   UNL     1      45.142  21.365  18.971  0.00  0.00    -0.007 C 
ATOM     24  C   UNL     1      45.683  20.034  18.516  0.00  0.00    +0.003 C 
ATOM     25  C   UNL     1      46.794  19.506  19.569  0.00  0.00    -0.035 C 
ATOM     26  C   UNL     1      47.932  20.578  19.576  0.00  0.00    +0.034 C 
ATOM     27  C   UNL     1      47.215  18.165  19.074  0.00  0.00    +0.010 C 
ATOM     28  C   UNL     1      47.860  18.156  17.661  0.00  0.00    +0.007 C 
ATOM     29  C   UNL     1      48.262  16.749  17.191  0.00  0.00    +0.012 C 
ATOM     30  C   UNL     1      47.968  15.645  18.181  0.00  0.00    +0.008 C 
ATOM     31  C   UNL     1      46.477  15.375  18.166  0.00  0.00    +0.028 C 
ATOM     32  C   UNL     1      48.705  14.393  17.656  0.00  0.00    -0.011 C 
ENDROOT
BRANCH  20  21
ATOM     21  O   UNL     1      43.942  22.342  20.828  0.00  0.00    -0.572 OA
ATOM     22  H   UNL     1      44.419  23.106  20.476  0.00  0.00    +0.371 HD
ENDBRANCH  20  21
TORSDOF 1
ENDMDL
MODEL 9
REMARK VINA RESULT:      -6.0      1.518      1.959
REMARK  Name = ZINC95486090
REMARK  9 active torsions:
REMARK  status: ('A' for Active; 'I' for Inactive)
REMARK    1  A    between atoms: C1_1  and  C2_2
REMARK    2  A    between atoms: C5_5  and  C29_34
REMARK    3  A    between atoms: C5_5  and  C30_35
REMARK    4  A    between atoms: C8_9  and  C28_33
REMARK    5  A    between atoms: C12_14  and  C27_32
REMARK    6  A    between atoms: C15_17  and  O1_31
REMARK    7  A    between atoms: C16_19  and  C25_29
REMARK    8  A    between atoms: C16_19  and  C26_30
REMARK    9  A    between atoms: C20_24  and  C24_28
REMARK                            x       y       z     vdW  Elec       q    Type
REMARK                         _______ _______ _______ _____ _____    ______ ____
ROOT
ATOM      1  C   UNL     1      46.745  14.300  16.199  0.00  0.00    +0.024 C 
ATOM      2  C   UNL     1      47.282  13.672  17.482  0.00  0.00    -0.051 C 
ATOM      3  C   UNL     1      47.831  12.358  17.180  0.00  0.00    +0.015 C 
ATOM      4  C   UNL     1      48.981  12.429  16.233  0.00  0.00    +0.013 C 
ATOM      5  C   UNL     1      50.100  13.300  16.784  0.00  0.00    -0.054 C 
ATOM      6  C   UNL     1      50.711  12.577  18.009  0.00  0.00    +0.020 C 
ATOM      7  C   UNL     1      51.190  13.495  15.720  0.00  0.00    +0.015 C 
ATOM      8  C   UNL     1      49.611  14.620  17.132  0.00  0.00    +0.022 C 
ATOM      9  C   UNL     1      46.087  13.568  18.524  0.00  0.00    +0.050 C 
ATOM     10  C   UNL     1      45.804  14.906  19.182  0.00  0.00    -0.045 C 
ATOM     11  C   UNL     1      46.670  15.832  19.329  0.00  0.00    -0.084 C 
ATOM     12  C   UNL     1      46.239  16.996  20.239  0.00  0.00    -0.021 C 
ATOM     13  C   UNL     1      46.135  16.318  21.642  0.00  0.00    +0.024 C 
ATOM     14  C   UNL     1      44.847  17.482  19.832  0.00  0.00    +0.039 C 
ATOM     15  C   UNL     1      44.499  18.673  20.705  0.00  0.00    +0.014 C 
ATOM     16  C   UNL     1      45.567  19.807  20.466  0.00  0.00    -0.017 C 
ATOM     17  C   UNL     1      45.123  21.207  20.893  0.00  0.00    -0.038 C 
ATOM     18  C   UNL     1      44.551  21.226  22.335  0.00  0.00    +0.040 C 
ATOM     19  C   UNL     1      43.964  21.688  19.949  0.00  0.00    +0.019 C 
ATOM     20  C   UNL     1      46.204  22.179  20.692  0.00  0.00    +0.168 C 
ATOM     23  C   UNL     1      47.606  21.756  21.278  0.00  0.00    -0.007 C 
ATOM     24  C   UNL     1      47.958  20.471  20.573  0.00  0.00    +0.003 C 
ATOM     25  C   UNL     1      46.879  19.325  20.954  0.00  0.00    -0.035 C 
ATOM     26  C   UNL     1      46.973  19.137  22.503  0.00  0.00    +0.034 C 
ATOM     27  C   UNL     1      47.268  18.125  20.163  0.00  0.00    +0.010 C 
ATOM     28  C   UNL     1      48.684  17.562  20.470  0.00  0.00    +0.007 C 
ATOM     29  C   UNL     1      49.042  16.335  19.617  0.00  0.00    +0.012 C 
ATOM     30  C   UNL     1      47.962  15.898  18.654  0.00  0.00    +0.008 C 
ATOM     31  C   UNL     1      47.937  16.870  17.492  0.00  0.00    +0.028 C 
ATOM     32  C   UNL     1      48.392  14.509  18.131  0.00  0.00    -0.011 C 
ENDROOT
BRANCH  20  21
ATOM     21  O   UNL     1      45.821  23.383  21.387  0.00  0.00    -0.572 OA
ATOM     22  H   UNL     1      46.330  23.553  22.190  0.00  0.00    +0.371 HD
ENDBRANCH  20  21
TORSDOF 1
ENDMDL
