MODEL 1
REMARK VINA RESULT:      -6.0      0.000      0.000
REMARK  Name = ZINC95486326
REMARK  5 active torsions:
REMARK  status: ('A' for Active; 'I' for Inactive)
REMARK    1  A    between atoms: C1_1  and  O1_2
REMARK    2  A    between atoms: O1_2  and  C2_3
REMARK    3  A    between atoms: C8_10  and  C9_12
REMARK    4  A    between atoms: C15_18  and  O6_27
REMARK    5  A    between atoms: C16_19  and  C17_20
REMARK                            x       y       z     vdW  Elec       q    Type
REMARK                         _______ _______ _______ _____ _____    ______ ____
ROOT
ATOM      3  C   UNL     1      47.973  17.774  17.705  0.00  0.00    +0.225 A 
ATOM      4  C   UNL     1      46.615  18.032  17.739  0.00  0.00    -0.093 A 
ATOM      5  C   UNL     1      46.122  19.083  18.498  0.00  0.00    +0.211 A 
ATOM      6  C   UNL     1      47.013  19.886  19.235  0.00  0.00    -0.288 A 
ATOM      7  C   UNL     1      48.387  19.627  19.205  0.00  0.00    +0.256 A 
ATOM     10  C   UNL     1      46.463  20.995  20.033  0.00  0.00    +0.426 A 
ATOM     11  C   UNL     1      45.059  21.184  20.004  0.00  0.00    -0.144 A 
ATOM     12  C   UNL     1      44.286  20.353  19.258  0.00  0.00    +0.203 A 
ATOM     19  O   UNL     1      47.188  21.723  20.691  0.00  0.00    -0.455 OA
ATOM     20  O   UNL     1      44.799  19.345  18.536  0.00  0.00    -0.218 OA
ATOM     21  C   UNL     1      48.866  18.564  18.442  0.00  0.00    -0.101 A 
ENDROOT
BRANCH  21  22
ATOM     22  C   UNL     1      50.320  18.273  18.404  0.00  0.00    -0.274 C 
ATOM     23  C   UNL     1      51.248  18.878  17.621  0.00  0.00    +0.363 C 
ATOM     24  O   UNL     1      52.472  18.378  17.835  0.00  0.00    -0.220 OA
ATOM     25  C   UNL     1      52.449  17.401  18.777  0.00  0.00    -0.059 C 
ATOM     26  C   UNL     1      53.493  16.697  19.226  0.00  0.00    +0.199 C 
ATOM     27  C   UNL     1      51.040  17.276  19.213  0.00  0.00    +0.401 C 
ATOM     28  O   UNL     1      50.581  16.518  20.049  0.00  0.00    -0.428 OA
ENDBRANCH  21  22
BRANCH  12  13
ATOM     13  C   UNL     1      42.825  20.567  19.243  0.00  0.00    -0.073 A 
ATOM     14  C   UNL     1      41.966  19.580  19.730  0.00  0.00    +0.056 A 
ATOM     15  C   UNL     1      40.602  19.789  19.713  0.00  0.00    +0.014 A 
ATOM     16  C   UNL     1      40.085  20.970  19.215  0.00  0.00    +0.037 A 
ATOM     17  C   UNL     1      40.930  21.953  18.730  0.00  0.00    +0.009 A 
ATOM     18  C   UNL     1      42.297  21.760  18.746  0.00  0.00    +0.054 A 
ENDBRANCH  12  13
BRANCH   3   2
ATOM      1  C   UNL     1      48.089  15.423  17.377  0.00  0.00    +0.255 C 
ATOM      2  O   UNL     1      48.445  16.743  16.959  0.00  0.00    -0.294 OA
ENDBRANCH   3   2
BRANCH   7   8
ATOM      8  O   UNL     1      49.245  20.401  19.916  0.00  0.00    -0.466 OA
ATOM      9  H   UNL     1      49.404  20.086  20.816  0.00  0.00    +0.404 HD
ENDBRANCH   7   8
TORSDOF 4
ENDMDL
MODEL 2
REMARK VINA RESULT:      -5.7      3.425      5.266
REMARK  Name = ZINC95486326
REMARK  5 active torsions:
REMARK  status: ('A' for Active; 'I' for Inactive)
REMARK    1  A    between atoms: C1_1  and  O1_2
REMARK    2  A    between atoms: O1_2  and  C2_3
REMARK    3  A    between atoms: C8_10  and  C9_12
REMARK    4  A    between atoms: C15_18  and  O6_27
REMARK    5  A    between atoms: C16_19  and  C17_20
REMARK                            x       y       z     vdW  Elec       q    Type
REMARK                         _______ _______ _______ _____ _____    ______ ____
ROOT
ATOM      3  C   UNL     1      47.279  12.939  17.382  0.00  0.00    +0.225 A 
ATOM      4  C   UNL     1      46.311  13.555  18.155  0.00  0.00    -0.093 A 
ATOM      5  C   UNL     1      46.394  14.912  18.426  0.00  0.00    +0.211 A 
ATOM      6  C   UNL     1      47.469  15.660  17.911  0.00  0.00    -0.288 A 
ATOM      7  C   UNL     1      48.450  15.041  17.130  0.00  0.00    +0.256 A 
ATOM     10  C   UNL     1      47.533  17.099  18.216  0.00  0.00    +0.426 A 
ATOM     11  C   UNL     1      46.497  17.643  19.013  0.00  0.00    -0.144 A 
ATOM     12  C   UNL     1      45.502  16.834  19.461  0.00  0.00    +0.203 A 
ATOM     19  O   UNL     1      48.442  17.796  17.795  0.00  0.00    -0.455 OA
ATOM     20  O   UNL     1      45.454  15.524  19.178  0.00  0.00    -0.218 OA
ATOM     21  C   UNL     1      48.356  13.675  16.870  0.00  0.00    -0.101 A 
ENDROOT
BRANCH  21  22
ATOM     22  C   UNL     1      49.392  13.001  16.049  0.00  0.00    -0.274 C 
ATOM     23  C   UNL     1      50.603  12.562  16.471  0.00  0.00    +0.363 C 
ATOM     24  O   UNL     1      51.296  11.998  15.475  0.00  0.00    -0.220 OA
ATOM     25  C   UNL     1      50.596  12.021  14.312  0.00  0.00    -0.059 C 
ATOM     26  C   UNL     1      50.994  11.543  13.128  0.00  0.00    +0.199 C 
ATOM     27  C   UNL     1      49.303  12.673  14.616  0.00  0.00    +0.401 C 
ATOM     28  O   UNL     1      48.378  12.892  13.854  0.00  0.00    -0.428 OA
ENDBRANCH  21  22
BRANCH  12  13
ATOM     13  C   UNL     1      44.431  17.421  20.293  0.00  0.00    -0.073 A 
ATOM     14  C   UNL     1      44.063  16.813  21.495  0.00  0.00    +0.056 A 
ATOM     15  C   UNL     1      43.063  17.368  22.266  0.00  0.00    +0.014 A 
ATOM     16  C   UNL     1      42.424  18.523  21.851  0.00  0.00    +0.037 A 
ATOM     17  C   UNL     1      42.784  19.130  20.661  0.00  0.00    +0.009 A 
ATOM     18  C   UNL     1      43.787  18.590  19.883  0.00  0.00    +0.054 A 
ENDBRANCH  12  13
BRANCH   3   2
ATOM      1  C   UNL     1      46.109  11.184  16.286  0.00  0.00    +0.255 C 
ATOM      2  O   UNL     1      47.188  11.609  17.122  0.00  0.00    -0.294 OA
ENDBRANCH   3   2
BRANCH   7   8
ATOM      8  O   UNL     1      49.488  15.761  16.634  0.00  0.00    -0.466 OA
ATOM      9  H   UNL     1      49.774  15.484  15.754  0.00  0.00    +0.404 HD
ENDBRANCH   7   8
TORSDOF 4
ENDMDL
MODEL 3
REMARK VINA RESULT:      -5.7      2.623      7.228
REMARK  Name = ZINC95486326
REMARK  5 active torsions:
REMARK  status: ('A' for Active; 'I' for Inactive)
REMARK    1  A    between atoms: C1_1  and  O1_2
REMARK    2  A    between atoms: O1_2  and  C2_3
REMARK    3  A    between atoms: C8_10  and  C9_12
REMARK    4  A    between atoms: C15_18  and  O6_27
REMARK    5  A    between atoms: C16_19  and  C17_20
REMARK                            x       y       z     vdW  Elec       q    Type
REMARK                         _______ _______ _______ _____ _____    ______ ____
ROOT
ATOM      3  C   UNL     1      45.142  18.147  20.112  0.00  0.00    +0.225 A 
ATOM      4  C   UNL     1      45.091  16.905  19.505  0.00  0.00    -0.093 A 
ATOM      5  C   UNL     1      46.103  16.506  18.645  0.00  0.00    +0.211 A 
ATOM      6  C   UNL     1      47.183  17.372  18.393  0.00  0.00    -0.288 A 
ATOM      7  C   UNL     1      47.238  18.629  19.003  0.00  0.00    +0.256 A 
ATOM     10  C   UNL     1      48.243  16.923  17.475  0.00  0.00    +0.426 A 
ATOM     11  C   UNL     1      48.107  15.635  16.902  0.00  0.00    -0.144 A 
ATOM     12  C   UNL     1      47.024  14.876  17.212  0.00  0.00    +0.203 A 
ATOM     19  O   UNL     1      49.203  17.632  17.220  0.00  0.00    -0.455 OA
ATOM     20  O   UNL     1      46.064  15.295  18.049  0.00  0.00    -0.218 OA
ATOM     21  C   UNL     1      46.211  19.018  19.861  0.00  0.00    -0.101 A 
ENDROOT
BRANCH  21  22
ATOM     22  C   UNL     1      46.251  20.351  20.512  0.00  0.00    -0.274 C 
ATOM     23  C   UNL     1      46.822  20.654  21.704  0.00  0.00    +0.363 C 
ATOM     24  O   UNL     1      46.681  21.951  22.000  0.00  0.00    -0.220 OA
ATOM     25  C   UNL     1      46.003  22.610  21.026  0.00  0.00    -0.059 C 
ATOM     26  C   UNL     1      45.691  23.910  21.006  0.00  0.00    +0.199 C 
ATOM     27  C   UNL     1      45.685  21.604  19.987  0.00  0.00    +0.401 C 
ATOM     28  O   UNL     1      45.089  21.775  18.939  0.00  0.00    -0.428 OA
ENDBRANCH  21  22
BRANCH  12  13
ATOM     13  C   UNL     1      46.900  13.535  16.603  0.00  0.00    -0.073 A 
ATOM     14  C   UNL     1      45.948  12.633  17.081  0.00  0.00    +0.056 A 
ATOM     15  C   UNL     1      45.838  11.384  16.506  0.00  0.00    +0.014 A 
ATOM     16  C   UNL     1      46.668  11.023  15.460  0.00  0.00    +0.037 A 
ATOM     17  C   UNL     1      47.614  11.913  14.982  0.00  0.00    +0.009 A 
ATOM     18  C   UNL     1      47.732  13.168  15.543  0.00  0.00    +0.054 A 
ENDBRANCH  12  13
BRANCH   3   2
ATOM      1  C   UNL     1      42.902  18.902  20.356  0.00  0.00    +0.255 C 
ATOM      2  O   UNL     1      44.146  18.528  20.952  0.00  0.00    -0.294 OA
ENDBRANCH   3   2
BRANCH   7   8
ATOM      8  O   UNL     1      48.279  19.465  18.759  0.00  0.00    -0.466 OA
ATOM      9  H   UNL     1      48.356  19.737  17.835  0.00  0.00    +0.404 HD
ENDBRANCH   7   8
TORSDOF 4
ENDMDL
MODEL 4
REMARK VINA RESULT:      -5.6      3.232      5.461
REMARK  Name = ZINC95486326
REMARK  5 active torsions:
REMARK  status: ('A' for Active; 'I' for Inactive)
REMARK    1  A    between atoms: C1_1  and  O1_2
REMARK    2  A    between atoms: O1_2  and  C2_3
REMARK    3  A    between atoms: C8_10  and  C9_12
REMARK    4  A    between atoms: C15_18  and  O6_27
REMARK    5  A    between atoms: C16_19  and  C17_20
REMARK                            x       y       z     vdW  Elec       q    Type
REMARK                         _______ _______ _______ _____ _____    ______ ____
ROOT
ATOM      3  C   UNL     1      47.429  13.702  16.457  0.00  0.00    +0.225 A 
ATOM      4  C   UNL     1      46.648  14.768  16.866  0.00  0.00    -0.093 A 
ATOM      5  C   UNL     1      47.243  15.945  17.295  0.00  0.00    +0.211 A 
ATOM      6  C   UNL     1      48.646  16.049  17.313  0.00  0.00    -0.288 A 
ATOM      7  C   UNL     1      49.440  14.973  16.902  0.00  0.00    +0.256 A 
ATOM     10  C   UNL     1      49.252  17.310  17.774  0.00  0.00    +0.426 A 
ATOM     11  C   UNL     1      48.373  18.347  18.171  0.00  0.00    -0.144 A 
ATOM     12  C   UNL     1      47.030  18.145  18.115  0.00  0.00    +0.203 A 
ATOM     19  O   UNL     1      50.462  17.456  17.809  0.00  0.00    -0.455 OA
ATOM     20  O   UNL     1      46.490  16.992  17.694  0.00  0.00    -0.218 OA
ATOM     21  C   UNL     1      48.828  13.795  16.478  0.00  0.00    -0.101 A 
ENDROOT
BRANCH  21  22
ATOM     22  C   UNL     1      49.655  12.642  16.044  0.00  0.00    -0.274 C 
ATOM     23  C   UNL     1      50.208  11.695  16.842  0.00  0.00    +0.363 C 
ATOM     24  O   UNL     1      50.895  10.794  16.131  0.00  0.00    -0.220 OA
ATOM     25  C   UNL     1      50.849  11.073  14.803  0.00  0.00    -0.059 C 
ATOM     26  C   UNL     1      51.426  10.377  13.817  0.00  0.00    +0.199 C 
ATOM     27  C   UNL     1      50.029  12.297  14.663  0.00  0.00    +0.401 C 
ATOM     28  O   UNL     1      49.734  12.886  13.638  0.00  0.00    -0.428 OA
ENDBRANCH  21  22
BRANCH  12  13
ATOM     13  C   UNL     1      46.131  19.240  18.535  0.00  0.00    -0.073 A 
ATOM     14  C   UNL     1      46.641  20.520  18.757  0.00  0.00    +0.056 A 
ATOM     15  C   UNL     1      45.794  21.537  19.147  0.00  0.00    +0.014 A 
ATOM     16  C   UNL     1      44.444  21.291  19.320  0.00  0.00    +0.037 A 
ATOM     17  C   UNL     1      43.932  20.024  19.103  0.00  0.00    +0.009 A 
ATOM     18  C   UNL     1      44.766  18.999  18.706  0.00  0.00    +0.054 A 
ENDBRANCH  12  13
BRANCH   3   2
ATOM      1  C   UNL     1      45.810  12.013  16.872  0.00  0.00    +0.255 C 
ATOM      2  O   UNL     1      46.837  12.554  16.039  0.00  0.00    -0.294 OA
ENDBRANCH   3   2
BRANCH   7   8
ATOM      8  O   UNL     1      50.793  15.073  16.920  0.00  0.00    -0.466 OA
ATOM      9  H   UNL     1      51.119  15.980  16.977  0.00  0.00    +0.404 HD
ENDBRANCH   7   8
TORSDOF 4
ENDMDL
MODEL 5
REMARK VINA RESULT:      -5.5      4.241      9.431
REMARK  Name = ZINC95486326
REMARK  5 active torsions:
REMARK  status: ('A' for Active; 'I' for Inactive)
REMARK    1  A    between atoms: C1_1  and  O1_2
REMARK    2  A    between atoms: O1_2  and  C2_3
REMARK    3  A    between atoms: C8_10  and  C9_12
REMARK    4  A    between atoms: C15_18  and  O6_27
REMARK    5  A    between atoms: C16_19  and  C17_20
REMARK                            x       y       z     vdW  Elec       q    Type
REMARK                         _______ _______ _______ _____ _____    ______ ____
ROOT
ATOM      3  C   UNL     1      47.611  15.428  19.282  0.00  0.00    +0.225 A 
ATOM      4  C   UNL     1      48.457  14.954  18.295  0.00  0.00    -0.093 A 
ATOM      5  C   UNL     1      48.040  13.938  17.447  0.00  0.00    +0.211 A 
ATOM      6  C   UNL     1      46.753  13.391  17.597  0.00  0.00    -0.288 A 
ATOM      7  C   UNL     1      45.895  13.867  18.594  0.00  0.00    +0.256 A 
ATOM     10  C   UNL     1      46.337  12.313  16.684  0.00  0.00    +0.426 A 
ATOM     11  C   UNL     1      47.269  11.894  15.703  0.00  0.00    -0.144 A 
ATOM     12  C   UNL     1      48.489  12.489  15.642  0.00  0.00    +0.203 A 
ATOM     19  O   UNL     1      45.232  11.803  16.768  0.00  0.00    -0.455 OA
ATOM     20  O   UNL     1      48.857  13.470  16.480  0.00  0.00    -0.218 OA
ATOM     21  C   UNL     1      46.329  14.884  19.442  0.00  0.00    -0.101 A 
ENDROOT
BRANCH  21  22
ATOM     22  C   UNL     1      45.434  15.395  20.508  0.00  0.00    -0.274 C 
ATOM     23  C   UNL     1      45.189  14.815  21.709  0.00  0.00    +0.363 C 
ATOM     24  O   UNL     1      44.331  15.538  22.439  0.00  0.00    -0.220 OA
ATOM     25  C   UNL     1      43.940  16.656  21.776  0.00  0.00    -0.059 C 
ATOM     26  C   UNL     1      43.093  17.593  22.217  0.00  0.00    +0.199 C 
ATOM     27  C   UNL     1      44.642  16.636  20.474  0.00  0.00    +0.401 C 
ATOM     28  O   UNL     1      44.578  17.458  19.577  0.00  0.00    -0.428 OA
ENDBRANCH  21  22
BRANCH  12  13
ATOM     13  C   UNL     1      49.448  12.037  14.613  0.00  0.00    -0.073 A 
ATOM     14  C   UNL     1      49.806  12.888  13.566  0.00  0.00    +0.056 A 
ATOM     15  C   UNL     1      50.702  12.459  12.609  0.00  0.00    +0.014 A 
ATOM     16  C   UNL     1      51.245  11.189  12.683  0.00  0.00    +0.037 A 
ATOM     17  C   UNL     1      50.894  10.340  13.718  0.00  0.00    +0.009 A 
ATOM     18  C   UNL     1      50.003  10.758  14.686  0.00  0.00    +0.054 A 
ENDBRANCH  12  13
BRANCH   3   2
ATOM      1  C   UNL     1      48.311  17.688  19.504  0.00  0.00    +0.255 C 
ATOM      2  O   UNL     1      48.027  16.423  20.106  0.00  0.00    -0.294 OA
ENDBRANCH   3   2
BRANCH   7   8
ATOM      8  O   UNL     1      44.654  13.338  18.739  0.00  0.00    -0.466 OA
ATOM      9  H   UNL     1      44.627  12.539  19.281  0.00  0.00    +0.404 HD
ENDBRANCH   7   8
TORSDOF 4
ENDMDL
MODEL 6
REMARK VINA RESULT:      -5.5      3.486      6.688
REMARK  Name = ZINC95486326
REMARK  5 active torsions:
REMARK  status: ('A' for Active; 'I' for Inactive)
REMARK    1  A    between atoms: C1_1  and  O1_2
REMARK    2  A    between atoms: O1_2  and  C2_3
REMARK    3  A    between atoms: C8_10  and  C9_12
REMARK    4  A    between atoms: C15_18  and  O6_27
REMARK    5  A    between atoms: C16_19  and  C17_20
REMARK                            x       y       z     vdW  Elec       q    Type
REMARK                         _______ _______ _______ _____ _____    ______ ____
ROOT
ATOM      3  C   UNL     1      48.426  18.433  18.417  0.00  0.00    +0.225 A 
ATOM      4  C   UNL     1      47.655  17.335  18.080  0.00  0.00    -0.093 A 
ATOM      5  C   UNL     1      48.249  16.203  17.543  0.00  0.00    +0.211 A 
ATOM      6  C   UNL     1      49.641  16.177  17.342  0.00  0.00    -0.288 A 
ATOM      7  C   UNL     1      50.424  17.285  17.681  0.00  0.00    +0.256 A 
ATOM     10  C   UNL     1      50.246  14.962  16.770  0.00  0.00    +0.426 A 
ATOM     11  C   UNL     1      49.377  13.887  16.457  0.00  0.00    -0.144 A 
ATOM     12  C   UNL     1      48.045  14.014  16.690  0.00  0.00    +0.203 A 
ATOM     19  O   UNL     1      51.447  14.884  16.575  0.00  0.00    -0.455 OA
ATOM     20  O   UNL     1      47.505  15.126  17.212  0.00  0.00    -0.218 OA
ATOM     21  C   UNL     1      49.813  18.418  18.214  0.00  0.00    -0.101 A 
ENDROOT
BRANCH  21  22
ATOM     22  C   UNL     1      50.628  19.604  18.573  0.00  0.00    -0.274 C 
ATOM     23  C   UNL     1      50.960  20.636  17.759  0.00  0.00    +0.363 C 
ATOM     24  O   UNL     1      51.706  21.545  18.398  0.00  0.00    -0.220 OA
ATOM     25  C   UNL     1      51.928  21.184  19.687  0.00  0.00    -0.059 C 
ATOM     26  C   UNL     1      52.631  21.864  20.600  0.00  0.00    +0.199 C 
ATOM     27  C   UNL     1      51.231  19.894  19.885  0.00  0.00    +0.401 C 
ATOM     28  O   UNL     1      51.171  19.224  20.900  0.00  0.00    -0.428 OA
ENDBRANCH  21  22
BRANCH  12  13
ATOM     13  C   UNL     1      47.156  12.882  16.357  0.00  0.00    -0.073 A 
ATOM     14  C   UNL     1      47.518  11.978  15.356  0.00  0.00    +0.056 A 
ATOM     15  C   UNL     1      46.683  10.922  15.051  0.00  0.00    +0.014 A 
ATOM     16  C   UNL     1      45.491  10.759  15.732  0.00  0.00    +0.037 A 
ATOM     17  C   UNL     1      45.126  11.652  16.725  0.00  0.00    +0.009 A 
ATOM     18  C   UNL     1      45.954  12.708  17.045  0.00  0.00    +0.054 A 
ENDBRANCH  12  13
BRANCH   3   2
ATOM      1  C   UNL     1      47.334  19.431  20.277  0.00  0.00    +0.255 C 
ATOM      2  O   UNL     1      47.835  19.536  18.942  0.00  0.00    -0.294 OA
ENDBRANCH   3   2
BRANCH   7   8
ATOM      8  O   UNL     1      51.767  17.260  17.486  0.00  0.00    -0.466 OA
ATOM      9  H   UNL     1      52.239  16.660  18.079  0.00  0.00    +0.404 HD
ENDBRANCH   7   8
TORSDOF 4
ENDMDL
MODEL 7
REMARK VINA RESULT:      -5.5      2.969      5.013
REMARK  Name = ZINC95486326
REMARK  5 active torsions:
REMARK  status: ('A' for Active; 'I' for Inactive)
REMARK    1  A    between atoms: C1_1  and  O1_2
REMARK    2  A    between atoms: O1_2  and  C2_3
REMARK    3  A    between atoms: C8_10  and  C9_12
REMARK    4  A    between atoms: C15_18  and  O6_27
REMARK    5  A    between atoms: C16_19  and  C17_20
REMARK                            x       y       z     vdW  Elec       q    Type
REMARK                         _______ _______ _______ _____ _____    ______ ____
ROOT
ATOM      3  C   UNL     1      48.815  14.806  16.910  0.00  0.00    +0.225 A 
ATOM      4  C   UNL     1      48.047  15.833  17.429  0.00  0.00    -0.093 A 
ATOM      5  C   UNL     1      48.649  17.005  17.860  0.00  0.00    +0.211 A 
ATOM      6  C   UNL     1      50.046  17.145  17.768  0.00  0.00    -0.288 A 
ATOM      7  C   UNL     1      50.826  16.109  17.244  0.00  0.00    +0.256 A 
ATOM     10  C   UNL     1      50.659  18.400  18.234  0.00  0.00    +0.426 A 
ATOM     11  C   UNL     1      49.793  19.396  18.748  0.00  0.00    -0.144 A 
ATOM     12  C   UNL     1      48.455  19.162  18.794  0.00  0.00    +0.203 A 
ATOM     19  O   UNL     1      51.865  18.576  18.176  0.00  0.00    -0.455 OA
ATOM     20  O   UNL     1      47.908  18.014  18.367  0.00  0.00    -0.218 OA
ATOM     21  C   UNL     1      50.208  14.935  16.820  0.00  0.00    -0.101 A 
ENDROOT
BRANCH  21  22
ATOM     22  C   UNL     1      51.022  13.824  16.268  0.00  0.00    -0.274 C 
ATOM     23  C   UNL     1      51.438  13.684  14.985  0.00  0.00    +0.363 C 
ATOM     24  O   UNL     1      52.157  12.566  14.821  0.00  0.00    -0.220 OA
ATOM     25  C   UNL     1      52.271  11.878  15.985  0.00  0.00    -0.059 C 
ATOM     26  C   UNL     1      52.921  10.724  16.173  0.00  0.00    +0.199 C 
ATOM     27  C   UNL     1      51.541  12.661  17.006  0.00  0.00    +0.401 C 
ATOM     28  O   UNL     1      51.399  12.402  18.188  0.00  0.00    -0.428 OA
ENDBRANCH  21  22
BRANCH  12  13
ATOM     13  C   UNL     1      47.570  20.213  19.335  0.00  0.00    -0.073 A 
ATOM     14  C   UNL     1      47.912  20.882  20.512  0.00  0.00    +0.056 A 
ATOM     15  C   UNL     1      47.080  21.863  21.010  0.00  0.00    +0.014 A 
ATOM     16  C   UNL     1      45.910  22.185  20.348  0.00  0.00    +0.037 A 
ATOM     17  C   UNL     1      45.564  21.526  19.181  0.00  0.00    +0.009 A 
ATOM     18  C   UNL     1      46.389  20.547  18.668  0.00  0.00    +0.054 A 
ENDBRANCH  12  13
BRANCH   3   2
ATOM      1  C   UNL     1      47.672  12.808  17.498  0.00  0.00    +0.255 C 
ATOM      2  O   UNL     1      48.216  13.662  16.490  0.00  0.00    -0.294 OA
ENDBRANCH   3   2
BRANCH   7   8
ATOM      8  O   UNL     1      52.173  16.243  17.156  0.00  0.00    -0.466 OA
ATOM      9  H   UNL     1      52.554  15.868  16.351  0.00  0.00    +0.404 HD
ENDBRANCH   7   8
TORSDOF 4
ENDMDL
MODEL 8
REMARK VINA RESULT:      -5.4      1.041      1.697
REMARK  Name = ZINC95486326
REMARK  5 active torsions:
REMARK  status: ('A' for Active; 'I' for Inactive)
REMARK    1  A    between atoms: C1_1  and  O1_2
REMARK    2  A    between atoms: O1_2  and  C2_3
REMARK    3  A    between atoms: C8_10  and  C9_12
REMARK    4  A    between atoms: C15_18  and  O6_27
REMARK    5  A    between atoms: C16_19  and  C17_20
REMARK                            x       y       z     vdW  Elec       q    Type
REMARK                         _______ _______ _______ _____ _____    ______ ____
ROOT
ATOM      3  C   UNL     1      47.481  17.201  18.013  0.00  0.00    +0.225 A 
ATOM      4  C   UNL     1      46.189  17.639  17.785  0.00  0.00    -0.093 A 
ATOM      5  C   UNL     1      45.647  18.650  18.565  0.00  0.00    +0.211 A 
ATOM      6  C   UNL     1      46.420  19.227  19.590  0.00  0.00    -0.288 A 
ATOM      7  C   UNL     1      47.726  18.786  19.824  0.00  0.00    +0.256 A 
ATOM     10  C   UNL     1      45.820  20.299  20.403  0.00  0.00    +0.426 A 
ATOM     11  C   UNL     1      44.491  20.683  20.096  0.00  0.00    -0.144 A 
ATOM     12  C   UNL     1      43.831  20.062  19.085  0.00  0.00    +0.203 A 
ATOM     19  O   UNL     1      46.443  20.835  21.304  0.00  0.00    -0.455 OA
ATOM     20  O   UNL     1      44.388  19.087  18.351  0.00  0.00    -0.218 OA
ATOM     21  C   UNL     1      48.255  17.766  19.035  0.00  0.00    -0.101 A 
ENDROOT
BRANCH  21  22
ATOM     22  C   UNL     1      49.637  17.282  19.274  0.00  0.00    -0.274 C 
ATOM     23  C   UNL     1      50.007  16.245  20.065  0.00  0.00    +0.363 C 
ATOM     24  O   UNL     1      51.334  16.073  20.059  0.00  0.00    -0.220 OA
ATOM     25  C   UNL     1      51.947  16.985  19.263  0.00  0.00    -0.059 C 
ATOM     26  C   UNL     1      53.261  17.095  19.034  0.00  0.00    +0.199 C 
ATOM     27  C   UNL     1      50.874  17.830  18.694  0.00  0.00    +0.401 C 
ATOM     28  O   UNL     1      50.988  18.767  17.924  0.00  0.00    -0.428 OA
ENDBRANCH  21  22
BRANCH  12  13
ATOM     13  C   UNL     1      42.446  20.477  18.781  0.00  0.00    -0.073 A 
ATOM     14  C   UNL     1      42.063  21.810  18.941  0.00  0.00    +0.056 A 
ATOM     15  C   UNL     1      40.768  22.190  18.654  0.00  0.00    +0.014 A 
ATOM     16  C   UNL     1      39.850  21.255  18.211  0.00  0.00    +0.037 A 
ATOM     17  C   UNL     1      40.223  19.932  18.051  0.00  0.00    +0.009 A 
ATOM     18  C   UNL     1      41.517  19.539  18.328  0.00  0.00    +0.054 A 
ENDBRANCH  12  13
BRANCH   3   2
ATOM      1  C   UNL     1      47.123  15.145  16.876  0.00  0.00    +0.255 C 
ATOM      2  O   UNL     1      48.002  16.211  17.243  0.00  0.00    -0.294 OA
ENDBRANCH   3   2
BRANCH   7   8
ATOM      8  O   UNL     1      48.470  19.342  20.813  0.00  0.00    -0.466 OA
ATOM      9  H   UNL     1      48.612  20.293  20.712  0.00  0.00    +0.404 HD
ENDBRANCH   7   8
TORSDOF 4
ENDMDL
MODEL 9
REMARK VINA RESULT:      -5.2      4.265      6.326
REMARK  Name = ZINC95486326
REMARK  5 active torsions:
REMARK  status: ('A' for Active; 'I' for Inactive)
REMARK    1  A    between atoms: C1_1  and  O1_2
REMARK    2  A    between atoms: O1_2  and  C2_3
REMARK    3  A    between atoms: C8_10  and  C9_12
REMARK    4  A    between atoms: C15_18  and  O6_27
REMARK    5  A    between atoms: C16_19  and  C17_20
REMARK                            x       y       z     vdW  Elec       q    Type
REMARK                         _______ _______ _______ _____ _____    ______ ____
ROOT
ATOM      3  C   UNL     1      50.732  17.525  17.458  0.00  0.00    +0.225 A 
ATOM      4  C   UNL     1      50.204  16.365  16.919  0.00  0.00    -0.093 A 
ATOM      5  C   UNL     1      48.980  15.885  17.359  0.00  0.00    +0.211 A 
ATOM      6  C   UNL     1      48.277  16.584  18.358  0.00  0.00    -0.288 A 
ATOM      7  C   UNL     1      48.807  17.757  18.906  0.00  0.00    +0.256 A 
ATOM     10  C   UNL     1      46.979  16.052  18.807  0.00  0.00    +0.426 A 
ATOM     11  C   UNL     1      46.518  14.860  18.197  0.00  0.00    -0.144 A 
ATOM     12  C   UNL     1      47.274  14.262  17.239  0.00  0.00    +0.203 A 
ATOM     19  O   UNL     1      46.327  16.617  19.669  0.00  0.00    -0.455 OA
ATOM     20  O   UNL     1      48.455  14.756  16.839  0.00  0.00    -0.218 OA
ATOM     21  C   UNL     1      50.041  18.224  18.458  0.00  0.00    -0.101 A 
ENDROOT
BRANCH  21  22
ATOM     22  C   UNL     1      50.621  19.462  19.033  0.00  0.00    -0.274 C 
ATOM     23  C   UNL     1      50.443  20.728  18.578  0.00  0.00    +0.363 C 
ATOM     24  O   UNL     1      51.107  21.616  19.328  0.00  0.00    -0.220 OA
ATOM     25  C   UNL     1      51.777  21.007  20.339  0.00  0.00    -0.059 C 
ATOM     26  C   UNL     1      52.536  21.599  21.268  0.00  0.00    +0.199 C 
ATOM     27  C   UNL     1      51.496  19.559  20.213  0.00  0.00    +0.401 C 
ATOM     28  O   UNL     1      51.898  18.654  20.922  0.00  0.00    -0.428 OA
ENDBRANCH  21  22
BRANCH  12  13
ATOM     13  C   UNL     1      46.775  13.019  16.616  0.00  0.00    -0.073 A 
ATOM     14  C   UNL     1      47.509  12.399  15.603  0.00  0.00    +0.056 A 
ATOM     15  C   UNL     1      47.036  11.237  15.027  0.00  0.00    +0.014 A 
ATOM     16  C   UNL     1      45.839  10.688  15.449  0.00  0.00    +0.037 A 
ATOM     17  C   UNL     1      45.107  11.297  16.453  0.00  0.00    +0.009 A 
ATOM     18  C   UNL     1      45.570  12.456  17.042  0.00  0.00    +0.054 A 
ENDBRANCH  12  13
BRANCH   3   2
ATOM      1  C   UNL     1      51.940  18.687  15.774  0.00  0.00    +0.255 C 
ATOM      2  O   UNL     1      51.931  17.987  17.020  0.00  0.00    -0.294 OA
ENDBRANCH   3   2
BRANCH   7   8
ATOM      8  O   UNL     1      48.130  18.430  19.870  0.00  0.00    -0.466 OA
ATOM      9  H   UNL     1      48.653  19.107  20.318  0.00  0.00    +0.404 HD
ENDBRANCH   7   8
TORSDOF 4
ENDMDL
