MODEL 1
REMARK VINA RESULT:      -5.0      0.000      0.000
REMARK  Name = ZINC95486337
REMARK  36 active torsions:
REMARK  status: ('A' for Active; 'I' for Inactive)
REMARK    1  A    between atoms: C1_1  and  O1_2
REMARK    2  A    between atoms: O1_2  and  C2_3
REMARK    3  A    between atoms: C4_5  and  C8_10
REMARK    4  A    between atoms: C7_8  and  O2_9
REMARK    5  A    between atoms: C9_11  and  C10_12
REMARK    6  A    between atoms: C10_12  and  O4_14
REMARK    7  A    between atoms: O4_14  and  C11_15
REMARK    8  A    between atoms: C11_15  and  C12_16
REMARK    9  A    between atoms: C12_16  and  C13_17
REMARK   10  A    between atoms: C13_17  and  C14_18
REMARK   11  A    between atoms: C14_18  and  C15_19
REMARK   12  A    between atoms: C15_19  and  C16_20
REMARK   13  A    between atoms: C16_20  and  C17_21
REMARK   14  A    between atoms: C17_21  and  C18_22
REMARK   15  A    between atoms: C18_22  and  C19_23
REMARK   16  A    between atoms: C19_23  and  C20_24
REMARK   17  A    between atoms: C20_24  and  C21_25
REMARK   18  A    between atoms: C21_25  and  C22_26
REMARK   19  A    between atoms: C22_26  and  C23_27
REMARK   20  A    between atoms: C23_27  and  C24_28
REMARK   21  A    between atoms: C24_28  and  C25_29
REMARK   22  A    between atoms: C25_29  and  C26_30
REMARK   23  A    between atoms: C26_30  and  C27_31
REMARK   24  A    between atoms: C27_31  and  C28_32
REMARK   25  A    between atoms: C28_32  and  C29_33
REMARK   26  A    between atoms: C29_33  and  C30_34
REMARK   27  A    between atoms: C30_34  and  C31_35
REMARK   28  A    between atoms: C31_35  and  C32_36
REMARK   29  A    between atoms: C32_36  and  C33_37
REMARK   30  A    between atoms: C33_37  and  C34_38
REMARK   31  A    between atoms: C34_38  and  O6_40
REMARK   32  A    between atoms: O6_40  and  C35_41
REMARK   33  A    between atoms: C35_41  and  C36_42
REMARK   34  A    between atoms: C36_42  and  C37_44
REMARK   35  A    between atoms: C36_42  and  O8_46
REMARK   36  A    between atoms: C37_44  and  O7_45
REMARK                            x       y       z     vdW  Elec       q    Type
REMARK                         _______ _______ _______ _____ _____    ______ ____
ROOT
ATOM     18  C   UNL     1      49.637  20.515  20.013  0.00  0.00    +0.000 C 
ENDROOT
BRANCH  18  17
ATOM     17  C   UNL     1      48.813  20.816  21.268  0.00  0.00    +0.000 C 
BRANCH  17  16
ATOM     16  C   UNL     1      47.930  19.610  21.598  0.00  0.00    +0.000 C 
BRANCH  16  15
ATOM     15  C   UNL     1      48.424  18.389  20.819  0.00  0.00    +0.001 C 
BRANCH  15  14
ATOM     14  C   UNL     1      47.791  17.124  21.402  0.00  0.00    +0.002 C 
BRANCH  14  13
ATOM     13  C   UNL     1      46.353  17.425  21.829  0.00  0.00    +0.008 C 
BRANCH  13  12
ATOM     12  C   UNL     1      45.461  16.227  21.494  0.00  0.00    +0.014 C 
BRANCH  12  11
ATOM     11  C   UNL     1      46.249  15.229  20.642  0.00  0.00    +0.030 C 
BRANCH  11  10
ATOM     10  C   UNL     1      45.566  15.070  19.282  0.00  0.00    +0.202 C 
BRANCH  10   9
ATOM      9  O   UNL     1      46.515  15.313  18.242  0.00  0.00    -0.350 OA
BRANCH   9   8
ATOM      8  C   UNL     1      46.411  16.485  17.579  0.00  0.00    +0.501 C 
ATOM     43  O   UNL     1      46.945  16.620  16.494  0.00  0.00    -0.514 OA
BRANCH   8   7
ATOM      6  C   UNL     1      46.103  18.829  17.979  0.00  0.00    +0.150 C 
ATOM      7  C   UNL     1      45.679  17.557  18.148  0.00  0.00    -0.060 C 
BRANCH   6   5
ATOM      3  C   UNL     1      43.255  20.875  19.314  0.00  0.00    +0.100 A 
ATOM      4  C   UNL     1      43.963  19.826  18.757  0.00  0.00    -0.026 A 
ATOM      5  C   UNL     1      45.345  19.941  18.569  0.00  0.00    -0.057 A 
ATOM     44  C   UNL     1      46.003  21.117  18.947  0.00  0.00    +0.026 A 
ATOM     45  C   UNL     1      45.290  22.158  19.501  0.00  0.00    +0.033 A 
ATOM     46  C   UNL     1      43.918  22.045  19.682  0.00  0.00    +0.095 A 
BRANCH   3   2
ATOM      1  C   UNL     1      41.138  20.326  18.380  0.00  0.00    +0.242 C 
ATOM      2  O   UNL     1      41.912  20.767  19.497  0.00  0.00    -0.306 OA
ENDBRANCH   3   2
BRANCH  46  47
ATOM     47  O   UNL     1      43.220  23.076  20.223  0.00  0.00    -0.485 OA
ATOM     48  H   UNL     1      42.433  22.804  20.716  0.00  0.00    +0.392 HD
ENDBRANCH  46  47
ENDBRANCH   6   5
ENDBRANCH   8   7
ENDBRANCH   9   8
ENDBRANCH  10   9
ENDBRANCH  11  10
ENDBRANCH  12  11
ENDBRANCH  13  12
ENDBRANCH  14  13
ENDBRANCH  15  14
ENDBRANCH  16  15
ENDBRANCH  17  16
ENDBRANCH  18  17
BRANCH  18  19
ATOM     19  C   UNL     1      51.122  20.728  20.315  0.00  0.00    +0.000 C 
BRANCH  19  20
ATOM     20  C   UNL     1      51.845  21.160  19.037  0.00  0.00    +0.000 C 
BRANCH  20  21
ATOM     21  C   UNL     1      50.831  21.295  17.900  0.00  0.00    +0.000 C 
BRANCH  21  22
ATOM     22  C   UNL     1      51.495  20.913  16.575  0.00  0.00    +0.000 C 
BRANCH  22  23
ATOM     23  C   UNL     1      52.217  19.575  16.734  0.00  0.00    +0.000 C 
BRANCH  23  24
ATOM     24  C   UNL     1      51.341  18.452  16.175  0.00  0.00    +0.000 C 
BRANCH  24  25
ATOM     25  C   UNL     1      50.231  18.125  17.176  0.00  0.00    -0.000 C 
BRANCH  25  26
ATOM     26  C   UNL     1      50.766  17.157  18.233  0.00  0.00    +0.000 C 
BRANCH  26  27
ATOM     27  C   UNL     1      49.954  15.861  18.196  0.00  0.00    +0.000 C 
BRANCH  27  28
ATOM     28  C   UNL     1      50.886  14.683  17.906  0.00  0.00    +0.002 C 
BRANCH  28  29
ATOM     29  C   UNL     1      51.417  14.792  16.474  0.00  0.00    +0.005 C 
BRANCH  29  30
ATOM     30  C   UNL     1      51.550  13.393  15.872  0.00  0.00    +0.010 C 
BRANCH  30  31
ATOM     31  C   UNL     1      51.733  13.505  14.357  0.00  0.00    +0.034 C 
BRANCH  31  32
ATOM     32  C   UNL     1      50.975  12.370  13.666  0.00  0.00    +0.102 C 
BRANCH  32  33
ATOM     33  C   UNL     1      49.745  12.924  12.994  0.00  0.00    +0.460 C 
ATOM     42  O   UNL     1      49.816  13.358  11.869  0.00  0.00    -0.507 OA
BRANCH  33  34
ATOM     34  O   UNL     1      48.571  12.935  13.645  0.00  0.00    -0.342 OA
BRANCH  34  35
ATOM     35  C   UNL     1      48.361  11.914  14.623  0.00  0.00    +0.190 C 
BRANCH  35  36
ATOM     36  C   UNL     1      48.054  12.560  15.976  0.00  0.00    +0.227 C 
BRANCH  36  37
ATOM     37  O   UNL     1      47.888  13.968  15.805  0.00  0.00    -0.542 OA
ATOM     38  H   UNL     1      48.500  14.362  15.167  0.00  0.00    +0.374 HD
ENDBRANCH  36  37
BRANCH  36  39
ATOM     39  C   UNL     1      46.768  11.959  16.547  0.00  0.00    +0.162 C 
BRANCH  39  40
ATOM     40  O   UNL     1      45.728  12.938  16.508  0.00  0.00    -0.561 OA
ATOM     41  H   UNL     1      45.953  13.769  16.949  0.00  0.00    +0.385 HD
ENDBRANCH  39  40
ENDBRANCH  36  39
ENDBRANCH  35  36
ENDBRANCH  34  35
ENDBRANCH  33  34
ENDBRANCH  32  33
ENDBRANCH  31  32
ENDBRANCH  30  31
ENDBRANCH  29  30
ENDBRANCH  28  29
ENDBRANCH  27  28
ENDBRANCH  26  27
ENDBRANCH  25  26
ENDBRANCH  24  25
ENDBRANCH  23  24
ENDBRANCH  22  23
ENDBRANCH  21  22
ENDBRANCH  20  21
ENDBRANCH  19  20
ENDBRANCH  18  19
TORSDOF 35
ENDMDL
MODEL 2
REMARK VINA RESULT:      -4.8      1.194      2.465
REMARK  Name = ZINC95486337
REMARK  36 active torsions:
REMARK  status: ('A' for Active; 'I' for Inactive)
REMARK    1  A    between atoms: C1_1  and  O1_2
REMARK    2  A    between atoms: O1_2  and  C2_3
REMARK    3  A    between atoms: C4_5  and  C8_10
REMARK    4  A    between atoms: C7_8  and  O2_9
REMARK    5  A    between atoms: C9_11  and  C10_12
REMARK    6  A    between atoms: C10_12  and  O4_14
REMARK    7  A    between atoms: O4_14  and  C11_15
REMARK    8  A    between atoms: C11_15  and  C12_16
REMARK    9  A    between atoms: C12_16  and  C13_17
REMARK   10  A    between atoms: C13_17  and  C14_18
REMARK   11  A    between atoms: C14_18  and  C15_19
REMARK   12  A    between atoms: C15_19  and  C16_20
REMARK   13  A    between atoms: C16_20  and  C17_21
REMARK   14  A    between atoms: C17_21  and  C18_22
REMARK   15  A    between atoms: C18_22  and  C19_23
REMARK   16  A    between atoms: C19_23  and  C20_24
REMARK   17  A    between atoms: C20_24  and  C21_25
REMARK   18  A    between atoms: C21_25  and  C22_26
REMARK   19  A    between atoms: C22_26  and  C23_27
REMARK   20  A    between atoms: C23_27  and  C24_28
REMARK   21  A    between atoms: C24_28  and  C25_29
REMARK   22  A    between atoms: C25_29  and  C26_30
REMARK   23  A    between atoms: C26_30  and  C27_31
REMARK   24  A    between atoms: C27_31  and  C28_32
REMARK   25  A    between atoms: C28_32  and  C29_33
REMARK   26  A    between atoms: C29_33  and  C30_34
REMARK   27  A    between atoms: C30_34  and  C31_35
REMARK   28  A    between atoms: C31_35  and  C32_36
REMARK   29  A    between atoms: C32_36  and  C33_37
REMARK   30  A    between atoms: C33_37  and  C34_38
REMARK   31  A    between atoms: C34_38  and  O6_40
REMARK   32  A    between atoms: O6_40  and  C35_41
REMARK   33  A    between atoms: C35_41  and  C36_42
REMARK   34  A    between atoms: C36_42  and  C37_44
REMARK   35  A    between atoms: C36_42  and  O8_46
REMARK   36  A    between atoms: C37_44  and  O7_45
REMARK                            x       y       z     vdW  Elec       q    Type
REMARK                         _______ _______ _______ _____ _____    ______ ____
ROOT
ATOM     18  C   UNL     1      49.656  20.299  19.932  0.00  0.00    +0.000 C 
ENDROOT
BRANCH  18  17
ATOM     17  C   UNL     1      48.762  20.771  21.082  0.00  0.00    +0.000 C 
BRANCH  17  16
ATOM     16  C   UNL     1      47.912  19.600  21.580  0.00  0.00    +0.000 C 
BRANCH  16  15
ATOM     15  C   UNL     1      48.271  18.339  20.790  0.00  0.00    +0.001 C 
BRANCH  15  14
ATOM     14  C   UNL     1      47.817  17.104  21.571  0.00  0.00    +0.002 C 
BRANCH  14  13
ATOM     13  C   UNL     1      46.322  17.216  21.878  0.00  0.00    +0.008 C 
BRANCH  13  12
ATOM     12  C   UNL     1      45.681  15.829  21.801  0.00  0.00    +0.014 C 
BRANCH  12  11
ATOM     11  C   UNL     1      46.363  15.013  20.700  0.00  0.00    +0.030 C 
BRANCH  11  10
ATOM     10  C   UNL     1      45.506  15.049  19.433  0.00  0.00    +0.202 C 
BRANCH  10   9
ATOM      9  O   UNL     1      46.351  15.193  18.290  0.00  0.00    -0.350 OA
BRANCH   9   8
ATOM      8  C   UNL     1      46.540  16.446  17.823  0.00  0.00    +0.501 C 
ATOM     43  O   UNL     1      47.342  16.647  16.930  0.00  0.00    -0.514 OA
BRANCH   8   7
ATOM      6  C   UNL     1      46.035  18.787  17.945  0.00  0.00    +0.150 C 
ATOM      7  C   UNL     1      45.806  17.526  18.374  0.00  0.00    -0.060 C 
BRANCH   6   5
ATOM      3  C   UNL     1      43.185  20.842  19.259  0.00  0.00    +0.100 A 
ATOM      4  C   UNL     1      43.895  19.786  18.721  0.00  0.00    -0.026 A 
ATOM      5  C   UNL     1      45.274  19.906  18.517  0.00  0.00    -0.057 A 
ATOM     44  C   UNL     1      45.927  21.096  18.860  0.00  0.00    +0.026 A 
ATOM     45  C   UNL     1      45.211  22.144  19.397  0.00  0.00    +0.033 A 
ATOM     46  C   UNL     1      43.842  22.026  19.593  0.00  0.00    +0.095 A 
BRANCH   3   2
ATOM      1  C   UNL     1      41.049  20.363  18.329  0.00  0.00    +0.242 C 
ATOM      2  O   UNL     1      41.845  20.729  19.459  0.00  0.00    -0.306 OA
ENDBRANCH   3   2
BRANCH  46  47
ATOM     47  O   UNL     1      43.142  23.064  20.118  0.00  0.00    -0.485 OA
ATOM     48  H   UNL     1      43.472  23.935  19.856  0.00  0.00    +0.392 HD
ENDBRANCH  46  47
ENDBRANCH   6   5
ENDBRANCH   8   7
ENDBRANCH   9   8
ENDBRANCH  10   9
ENDBRANCH  11  10
ENDBRANCH  12  11
ENDBRANCH  13  12
ENDBRANCH  14  13
ENDBRANCH  15  14
ENDBRANCH  16  15
ENDBRANCH  17  16
ENDBRANCH  18  17
BRANCH  18  19
ATOM     19  C   UNL     1      51.120  20.584  20.276  0.00  0.00    +0.000 C 
BRANCH  19  20
ATOM     20  C   UNL     1      51.848  21.083  19.025  0.00  0.00    +0.000 C 
BRANCH  20  21
ATOM     21  C   UNL     1      50.864  21.146  17.855  0.00  0.00    +0.000 C 
BRANCH  21  22
ATOM     22  C   UNL     1      51.618  20.925  16.542  0.00  0.00    +0.000 C 
BRANCH  22  23
ATOM     23  C   UNL     1      51.894  19.432  16.358  0.00  0.00    +0.000 C 
BRANCH  23  24
ATOM     24  C   UNL     1      50.592  18.647  16.533  0.00  0.00    +0.000 C 
BRANCH  24  25
ATOM     25  C   UNL     1      50.735  17.678  17.708  0.00  0.00    -0.000 C 
BRANCH  25  26
ATOM     26  C   UNL     1      52.199  17.256  17.846  0.00  0.00    +0.000 C 
BRANCH  26  27
ATOM     27  C   UNL     1      52.541  17.078  19.327  0.00  0.00    +0.000 C 
BRANCH  27  28
ATOM     28  C   UNL     1      51.288  16.649  20.092  0.00  0.00    +0.002 C 
BRANCH  28  29
ATOM     29  C   UNL     1      51.190  15.121  20.097  0.00  0.00    +0.005 C 
BRANCH  29  30
ATOM     30  C   UNL     1      49.777  14.700  19.693  0.00  0.00    +0.010 C 
BRANCH  30  31
ATOM     31  C   UNL     1      49.856  13.585  18.648  0.00  0.00    +0.034 C 
BRANCH  31  32
ATOM     32  C   UNL     1      50.077  14.198  17.265  0.00  0.00    +0.102 C 
BRANCH  32  33
ATOM     33  C   UNL     1      49.926  13.130  16.212  0.00  0.00    +0.460 C 
ATOM     42  O   UNL     1      49.389  12.083  16.486  0.00  0.00    -0.507 OA
BRANCH  33  34
ATOM     34  O   UNL     1      50.389  13.341  14.969  0.00  0.00    -0.342 OA
BRANCH  34  35
ATOM     35  C   UNL     1      51.515  12.564  14.556  0.00  0.00    +0.190 C 
BRANCH  35  36
ATOM     36  C   UNL     1      51.127  11.705  13.350  0.00  0.00    +0.227 C 
BRANCH  36  37
ATOM     37  O   UNL     1      49.886  11.050  13.613  0.00  0.00    -0.542 OA
ATOM     38  H   UNL     1      49.107  11.565  13.359  0.00  0.00    +0.374 HD
ENDBRANCH  36  37
BRANCH  36  39
ATOM     39  C   UNL     1      50.984  12.596  12.115  0.00  0.00    +0.162 C 
BRANCH  39  40
ATOM     40  O   UNL     1      51.883  13.701  12.218  0.00  0.00    -0.561 OA
ATOM     41  H   UNL     1      52.515  13.627  12.947  0.00  0.00    +0.385 HD
ENDBRANCH  39  40
ENDBRANCH  36  39
ENDBRANCH  35  36
ENDBRANCH  34  35
ENDBRANCH  33  34
ENDBRANCH  32  33
ENDBRANCH  31  32
ENDBRANCH  30  31
ENDBRANCH  29  30
ENDBRANCH  28  29
ENDBRANCH  27  28
ENDBRANCH  26  27
ENDBRANCH  25  26
ENDBRANCH  24  25
ENDBRANCH  23  24
ENDBRANCH  22  23
ENDBRANCH  21  22
ENDBRANCH  20  21
ENDBRANCH  19  20
ENDBRANCH  18  19
TORSDOF 35
ENDMDL
MODEL 3
REMARK VINA RESULT:      -4.6      2.055      5.250
REMARK  Name = ZINC95486337
REMARK  36 active torsions:
REMARK  status: ('A' for Active; 'I' for Inactive)
REMARK    1  A    between atoms: C1_1  and  O1_2
REMARK    2  A    between atoms: O1_2  and  C2_3
REMARK    3  A    between atoms: C4_5  and  C8_10
REMARK    4  A    between atoms: C7_8  and  O2_9
REMARK    5  A    between atoms: C9_11  and  C10_12
REMARK    6  A    between atoms: C10_12  and  O4_14
REMARK    7  A    between atoms: O4_14  and  C11_15
REMARK    8  A    between atoms: C11_15  and  C12_16
REMARK    9  A    between atoms: C12_16  and  C13_17
REMARK   10  A    between atoms: C13_17  and  C14_18
REMARK   11  A    between atoms: C14_18  and  C15_19
REMARK   12  A    between atoms: C15_19  and  C16_20
REMARK   13  A    between atoms: C16_20  and  C17_21
REMARK   14  A    between atoms: C17_21  and  C18_22
REMARK   15  A    between atoms: C18_22  and  C19_23
REMARK   16  A    between atoms: C19_23  and  C20_24
REMARK   17  A    between atoms: C20_24  and  C21_25
REMARK   18  A    between atoms: C21_25  and  C22_26
REMARK   19  A    between atoms: C22_26  and  C23_27
REMARK   20  A    between atoms: C23_27  and  C24_28
REMARK   21  A    between atoms: C24_28  and  C25_29
REMARK   22  A    between atoms: C25_29  and  C26_30
REMARK   23  A    between atoms: C26_30  and  C27_31
REMARK   24  A    between atoms: C27_31  and  C28_32
REMARK   25  A    between atoms: C28_32  and  C29_33
REMARK   26  A    between atoms: C29_33  and  C30_34
REMARK   27  A    between atoms: C30_34  and  C31_35
REMARK   28  A    between atoms: C31_35  and  C32_36
REMARK   29  A    between atoms: C32_36  and  C33_37
REMARK   30  A    between atoms: C33_37  and  C34_38
REMARK   31  A    between atoms: C34_38  and  O6_40
REMARK   32  A    between atoms: O6_40  and  C35_41
REMARK   33  A    between atoms: C35_41  and  C36_42
REMARK   34  A    between atoms: C36_42  and  C37_44
REMARK   35  A    between atoms: C36_42  and  O8_46
REMARK   36  A    between atoms: C37_44  and  O7_45
REMARK                            x       y       z     vdW  Elec       q    Type
REMARK                         _______ _______ _______ _____ _____    ______ ____
ROOT
ATOM     18  C   UNL     1      48.426  16.213  17.082  0.00  0.00    +0.000 C 
ENDROOT
BRANCH  18  17
ATOM     17  C   UNL     1      49.123  17.544  17.374  0.00  0.00    +0.000 C 
BRANCH  17  16
ATOM     16  C   UNL     1      50.462  17.277  18.066  0.00  0.00    +0.000 C 
BRANCH  16  15
ATOM     15  C   UNL     1      51.605  17.562  17.089  0.00  0.00    +0.001 C 
BRANCH  15  14
ATOM     14  C   UNL     1      51.162  18.628  16.085  0.00  0.00    +0.002 C 
BRANCH  14  13
ATOM     13  C   UNL     1      52.110  19.827  16.165  0.00  0.00    +0.008 C 
BRANCH  13  12
ATOM     12  C   UNL     1      51.463  20.931  17.006  0.00  0.00    +0.014 C 
BRANCH  12  11
ATOM     11  C   UNL     1      52.047  20.900  18.421  0.00  0.00    +0.030 C 
BRANCH  11  10
ATOM     10  C   UNL     1      50.919  21.062  19.442  0.00  0.00    +0.202 C 
BRANCH  10   9
ATOM      9  O   UNL     1      49.658  20.940  18.781  0.00  0.00    -0.350 OA
BRANCH   9   8
ATOM      8  C   UNL     1      48.618  20.503  19.522  0.00  0.00    +0.501 C 
ATOM     43  O   UNL     1      48.815  19.792  20.489  0.00  0.00    -0.514 OA
BRANCH   8   7
ATOM      6  C   UNL     1      46.373  21.081  20.140  0.00  0.00    +0.150 C 
ATOM      7  C   UNL     1      47.294  20.874  19.173  0.00  0.00    -0.060 C 
BRANCH   6   5
ATOM      3  C   UNL     1      42.746  20.846  19.213  0.00  0.00    +0.100 A 
ATOM      4  C   UNL     1      44.034  20.479  19.552  0.00  0.00    -0.026 A 
ATOM      5  C   UNL     1      45.002  21.464  19.778  0.00  0.00    -0.057 A 
ATOM     44  C   UNL     1      44.658  22.816  19.662  0.00  0.00    +0.026 A 
ATOM     45  C   UNL     1      43.371  23.173  19.323  0.00  0.00    +0.033 A 
ATOM     46  C   UNL     1      42.414  22.194  19.093  0.00  0.00    +0.095 A 
BRANCH   3   2
ATOM      1  C   UNL     1      41.446  19.063  20.101  0.00  0.00    +0.242 C 
ATOM      2  O   UNL     1      41.803  19.891  18.992  0.00  0.00    -0.306 OA
ENDBRANCH   3   2
BRANCH  46  47
ATOM     47  O   UNL     1      41.148  22.552  18.755  0.00  0.00    -0.485 OA
ATOM     48  H   UNL     1      41.058  22.871  17.847  0.00  0.00    +0.392 HD
ENDBRANCH  46  47
ENDBRANCH   6   5
ENDBRANCH   8   7
ENDBRANCH   9   8
ENDBRANCH  10   9
ENDBRANCH  11  10
ENDBRANCH  12  11
ENDBRANCH  13  12
ENDBRANCH  14  13
ENDBRANCH  15  14
ENDBRANCH  16  15
ENDBRANCH  17  16
ENDBRANCH  18  17
BRANCH  18  19
ATOM     19  C   UNL     1      46.936  16.337  17.406  0.00  0.00    +0.000 C 
BRANCH  19  20
ATOM     20  C   UNL     1      46.723  17.491  18.388  0.00  0.00    +0.000 C 
BRANCH  20  21
ATOM     21  C   UNL     1      45.389  17.303  19.113  0.00  0.00    +0.000 C 
BRANCH  21  22
ATOM     22  C   UNL     1      45.648  17.032  20.597  0.00  0.00    +0.000 C 
BRANCH  22  23
ATOM     23  C   UNL     1      44.797  15.847  21.055  0.00  0.00    +0.000 C 
BRANCH  23  24
ATOM     24  C   UNL     1      45.465  14.540  20.619  0.00  0.00    +0.000 C 
BRANCH  24  25
ATOM     25  C   UNL     1      46.848  14.434  21.265  0.00  0.00    -0.000 C 
BRANCH  25  26
ATOM     26  C   UNL     1      47.875  14.030  20.207  0.00  0.00    +0.000 C 
BRANCH  26  27
ATOM     27  C   UNL     1      49.150  14.857  20.390  0.00  0.00    +0.000 C 
BRANCH  27  28
ATOM     28  C   UNL     1      50.362  14.030  19.956  0.00  0.00    +0.002 C 
BRANCH  28  29
ATOM     29  C   UNL     1      50.182  13.584  18.503  0.00  0.00    +0.005 C 
BRANCH  29  30
ATOM     30  C   UNL     1      51.526  13.657  17.777  0.00  0.00    +0.010 C 
BRANCH  30  31
ATOM     31  C   UNL     1      51.286  13.754  16.269  0.00  0.00    +0.034 C 
BRANCH  31  32
ATOM     32  C   UNL     1      49.892  13.220  15.939  0.00  0.00    +0.102 C 
BRANCH  32  33
ATOM     33  C   UNL     1      50.015  11.865  15.290  0.00  0.00    +0.460 C 
ATOM     42  O   UNL     1      50.273  10.894  15.962  0.00  0.00    -0.507 OA
BRANCH  33  34
ATOM     34  O   UNL     1      49.838  11.736  13.965  0.00  0.00    -0.342 OA
BRANCH  34  35
ATOM     35  C   UNL     1      51.003  11.832  13.143  0.00  0.00    +0.190 C 
BRANCH  35  36
ATOM     36  C   UNL     1      51.010  13.183  12.425  0.00  0.00    +0.227 C 
BRANCH  36  37
ATOM     37  O   UNL     1      52.245  13.853  12.685  0.00  0.00    -0.542 OA
ATOM     38  H   UNL     1      52.927  13.285  13.070  0.00  0.00    +0.374 HD
ENDBRANCH  36  37
BRANCH  36  39
ATOM     39  C   UNL     1      50.857  12.961  10.919  0.00  0.00    +0.162 C 
BRANCH  39  40
ATOM     40  O   UNL     1      50.746  14.224  10.261  0.00  0.00    -0.561 OA
ATOM     41  H   UNL     1      51.594  14.607   9.997  0.00  0.00    +0.385 HD
ENDBRANCH  39  40
ENDBRANCH  36  39
ENDBRANCH  35  36
ENDBRANCH  34  35
ENDBRANCH  33  34
ENDBRANCH  32  33
ENDBRANCH  31  32
ENDBRANCH  30  31
ENDBRANCH  29  30
ENDBRANCH  28  29
ENDBRANCH  27  28
ENDBRANCH  26  27
ENDBRANCH  25  26
ENDBRANCH  24  25
ENDBRANCH  23  24
ENDBRANCH  22  23
ENDBRANCH  21  22
ENDBRANCH  20  21
ENDBRANCH  19  20
ENDBRANCH  18  19
TORSDOF 35
ENDMDL
MODEL 4
REMARK VINA RESULT:      -4.6      1.991      5.127
REMARK  Name = ZINC95486337
REMARK  36 active torsions:
REMARK  status: ('A' for Active; 'I' for Inactive)
REMARK    1  A    between atoms: C1_1  and  O1_2
REMARK    2  A    between atoms: O1_2  and  C2_3
REMARK    3  A    between atoms: C4_5  and  C8_10
REMARK    4  A    between atoms: C7_8  and  O2_9
REMARK    5  A    between atoms: C9_11  and  C10_12
REMARK    6  A    between atoms: C10_12  and  O4_14
REMARK    7  A    between atoms: O4_14  and  C11_15
REMARK    8  A    between atoms: C11_15  and  C12_16
REMARK    9  A    between atoms: C12_16  and  C13_17
REMARK   10  A    between atoms: C13_17  and  C14_18
REMARK   11  A    between atoms: C14_18  and  C15_19
REMARK   12  A    between atoms: C15_19  and  C16_20
REMARK   13  A    between atoms: C16_20  and  C17_21
REMARK   14  A    between atoms: C17_21  and  C18_22
REMARK   15  A    between atoms: C18_22  and  C19_23
REMARK   16  A    between atoms: C19_23  and  C20_24
REMARK   17  A    between atoms: C20_24  and  C21_25
REMARK   18  A    between atoms: C21_25  and  C22_26
REMARK   19  A    between atoms: C22_26  and  C23_27
REMARK   20  A    between atoms: C23_27  and  C24_28
REMARK   21  A    between atoms: C24_28  and  C25_29
REMARK   22  A    between atoms: C25_29  and  C26_30
REMARK   23  A    between atoms: C26_30  and  C27_31
REMARK   24  A    between atoms: C27_31  and  C28_32
REMARK   25  A    between atoms: C28_32  and  C29_33
REMARK   26  A    between atoms: C29_33  and  C30_34
REMARK   27  A    between atoms: C30_34  and  C31_35
REMARK   28  A    between atoms: C31_35  and  C32_36
REMARK   29  A    between atoms: C32_36  and  C33_37
REMARK   30  A    between atoms: C33_37  and  C34_38
REMARK   31  A    between atoms: C34_38  and  O6_40
REMARK   32  A    between atoms: O6_40  and  C35_41
REMARK   33  A    between atoms: C35_41  and  C36_42
REMARK   34  A    between atoms: C36_42  and  C37_44
REMARK   35  A    between atoms: C36_42  and  O8_46
REMARK   36  A    between atoms: C37_44  and  O7_45
REMARK                            x       y       z     vdW  Elec       q    Type
REMARK                         _______ _______ _______ _____ _____    ______ ____
ROOT
ATOM     18  C   UNL     1      49.943  21.079  18.574  0.00  0.00    +0.000 C 
ENDROOT
BRANCH  18  17
ATOM     17  C   UNL     1      48.982  20.780  19.728  0.00  0.00    +0.000 C 
BRANCH  17  16
ATOM     16  C   UNL     1      47.865  19.858  19.234  0.00  0.00    +0.000 C 
BRANCH  16  15
ATOM     15  C   UNL     1      46.554  20.230  19.930  0.00  0.00    +0.001 C 
BRANCH  15  14
ATOM     14  C   UNL     1      45.577  20.804  18.901  0.00  0.00    +0.002 C 
BRANCH  14  13
ATOM     13  C   UNL     1      44.645  19.693  18.411  0.00  0.00    +0.008 C 
BRANCH  13  12
ATOM     12  C   UNL     1      43.204  20.029  18.804  0.00  0.00    +0.014 C 
BRANCH  12  11
ATOM     11  C   UNL     1      43.162  20.451  20.275  0.00  0.00    +0.030 C 
BRANCH  11  10
ATOM     10  C   UNL     1      42.681  19.276  21.129  0.00  0.00    +0.202 C 
BRANCH  10   9
ATOM      9  O   UNL     1      43.798  18.674  21.784  0.00  0.00    -0.350 OA
BRANCH   9   8
ATOM      8  C   UNL     1      43.980  17.350  21.593  0.00  0.00    +0.501 C 
ATOM     43  O   UNL     1      43.749  16.568  22.495  0.00  0.00    -0.514 OA
BRANCH   8   7
ATOM      6  C   UNL     1      45.461  15.989  20.287  0.00  0.00    +0.150 C 
ATOM      7  C   UNL     1      44.440  16.872  20.340  0.00  0.00    -0.060 C 
BRANCH   6   5
ATOM      3  C   UNL     1      46.331  13.668  17.472  0.00  0.00    +0.100 A 
ATOM      4  C   UNL     1      45.882  14.127  18.695  0.00  0.00    -0.026 A 
ATOM      5  C   UNL     1      45.939  15.494  18.989  0.00  0.00    -0.057 A 
ATOM     44  C   UNL     1      46.449  16.389  18.041  0.00  0.00    +0.026 A 
ATOM     45  C   UNL     1      46.895  15.922  16.824  0.00  0.00    +0.033 A 
ATOM     46  C   UNL     1      46.844  14.565  16.536  0.00  0.00    +0.095 A 
BRANCH   3   2
ATOM      1  C   UNL     1      45.030  11.828  16.712  0.00  0.00    +0.242 C 
ATOM      2  O   UNL     1      46.278  12.340  17.183  0.00  0.00    -0.306 OA
ENDBRANCH   3   2
BRANCH  46  47
ATOM     47  O   UNL     1      47.290  14.111  15.336  0.00  0.00    -0.485 OA
ATOM     48  H   UNL     1      46.687  14.284  14.600  0.00  0.00    +0.392 HD
ENDBRANCH  46  47
ENDBRANCH   6   5
ENDBRANCH   8   7
ENDBRANCH   9   8
ENDBRANCH  10   9
ENDBRANCH  11  10
ENDBRANCH  12  11
ENDBRANCH  13  12
ENDBRANCH  14  13
ENDBRANCH  15  14
ENDBRANCH  16  15
ENDBRANCH  17  16
ENDBRANCH  18  17
BRANCH  18  19
ATOM     19  C   UNL     1      51.378  21.117  19.103  0.00  0.00    +0.000 C 
BRANCH  19  20
ATOM     20  C   UNL     1      52.346  20.757  17.974  0.00  0.00    +0.000 C 
BRANCH  20  21
ATOM     21  C   UNL     1      51.591  20.736  16.643  0.00  0.00    +0.000 C 
BRANCH  21  22
ATOM     22  C   UNL     1      52.109  19.584  15.780  0.00  0.00    +0.000 C 
BRANCH  22  23
ATOM     23  C   UNL     1      51.828  18.254  16.481  0.00  0.00    +0.000 C 
BRANCH  23  24
ATOM     24  C   UNL     1      50.316  18.036  16.572  0.00  0.00    +0.000 C 
BRANCH  24  25
ATOM     25  C   UNL     1      49.975  17.374  17.909  0.00  0.00    -0.000 C 
BRANCH  25  26
ATOM     26  C   UNL     1      51.232  17.302  18.777  0.00  0.00    +0.000 C 
BRANCH  26  27
ATOM     27  C   UNL     1      50.873  17.643  20.225  0.00  0.00    +0.000 C 
BRANCH  27  28
ATOM     28  C   UNL     1      49.573  16.933  20.609  0.00  0.00    +0.002 C 
BRANCH  28  29
ATOM     29  C   UNL     1      49.894  15.541  21.158  0.00  0.00    +0.005 C 
BRANCH  29  30
ATOM     30  C   UNL     1      49.199  14.482  20.300  0.00  0.00    +0.010 C 
BRANCH  30  31
ATOM     31  C   UNL     1      50.247  13.538  19.708  0.00  0.00    +0.034 C 
BRANCH  31  32
ATOM     32  C   UNL     1      49.605  12.686  18.612  0.00  0.00    +0.102 C 
BRANCH  32  33
ATOM     33  C   UNL     1      50.237  13.014  17.284  0.00  0.00    +0.460 C 
ATOM     42  O   UNL     1      50.357  14.167  16.941  0.00  0.00    -0.507 OA
BRANCH  33  34
ATOM     34  O   UNL     1      50.666  12.027  16.482  0.00  0.00    -0.342 OA
BRANCH  34  35
ATOM     35  C   UNL     1      49.866  11.728  15.336  0.00  0.00    +0.190 C 
BRANCH  35  36
ATOM     36  C   UNL     1      50.767  11.251  14.195  0.00  0.00    +0.227 C 
BRANCH  36  37
ATOM     37  O   UNL     1      50.216  11.673  12.946  0.00  0.00    -0.542 OA
ATOM     38  H   UNL     1      49.736  12.512  12.991  0.00  0.00    +0.374 HD
ENDBRANCH  36  37
BRANCH  36  39
ATOM     39  C   UNL     1      52.165  11.849  14.365  0.00  0.00    +0.162 C 
BRANCH  39  40
ATOM     40  O   UNL     1      53.075  10.824  14.767  0.00  0.00    -0.561 OA
ATOM     41  H   UNL     1      53.088  10.660  15.720  0.00  0.00    +0.385 HD
ENDBRANCH  39  40
ENDBRANCH  36  39
ENDBRANCH  35  36
ENDBRANCH  34  35
ENDBRANCH  33  34
ENDBRANCH  32  33
ENDBRANCH  31  32
ENDBRANCH  30  31
ENDBRANCH  29  30
ENDBRANCH  28  29
ENDBRANCH  27  28
ENDBRANCH  26  27
ENDBRANCH  25  26
ENDBRANCH  24  25
ENDBRANCH  23  24
ENDBRANCH  22  23
ENDBRANCH  21  22
ENDBRANCH  20  21
ENDBRANCH  19  20
ENDBRANCH  18  19
TORSDOF 35
ENDMDL
MODEL 5
REMARK VINA RESULT:      -4.2      2.510      8.056
REMARK  Name = ZINC95486337
REMARK  36 active torsions:
REMARK  status: ('A' for Active; 'I' for Inactive)
REMARK    1  A    between atoms: C1_1  and  O1_2
REMARK    2  A    between atoms: O1_2  and  C2_3
REMARK    3  A    between atoms: C4_5  and  C8_10
REMARK    4  A    between atoms: C7_8  and  O2_9
REMARK    5  A    between atoms: C9_11  and  C10_12
REMARK    6  A    between atoms: C10_12  and  O4_14
REMARK    7  A    between atoms: O4_14  and  C11_15
REMARK    8  A    between atoms: C11_15  and  C12_16
REMARK    9  A    between atoms: C12_16  and  C13_17
REMARK   10  A    between atoms: C13_17  and  C14_18
REMARK   11  A    between atoms: C14_18  and  C15_19
REMARK   12  A    between atoms: C15_19  and  C16_20
REMARK   13  A    between atoms: C16_20  and  C17_21
REMARK   14  A    between atoms: C17_21  and  C18_22
REMARK   15  A    between atoms: C18_22  and  C19_23
REMARK   16  A    between atoms: C19_23  and  C20_24
REMARK   17  A    between atoms: C20_24  and  C21_25
REMARK   18  A    between atoms: C21_25  and  C22_26
REMARK   19  A    between atoms: C22_26  and  C23_27
REMARK   20  A    between atoms: C23_27  and  C24_28
REMARK   21  A    between atoms: C24_28  and  C25_29
REMARK   22  A    between atoms: C25_29  and  C26_30
REMARK   23  A    between atoms: C26_30  and  C27_31
REMARK   24  A    between atoms: C27_31  and  C28_32
REMARK   25  A    between atoms: C28_32  and  C29_33
REMARK   26  A    between atoms: C29_33  and  C30_34
REMARK   27  A    between atoms: C30_34  and  C31_35
REMARK   28  A    between atoms: C31_35  and  C32_36
REMARK   29  A    between atoms: C32_36  and  C33_37
REMARK   30  A    between atoms: C33_37  and  C34_38
REMARK   31  A    between atoms: C34_38  and  O6_40
REMARK   32  A    between atoms: O6_40  and  C35_41
REMARK   33  A    between atoms: C35_41  and  C36_42
REMARK   34  A    between atoms: C36_42  and  C37_44
REMARK   35  A    between atoms: C36_42  and  O8_46
REMARK   36  A    between atoms: C37_44  and  O7_45
REMARK                            x       y       z     vdW  Elec       q    Type
REMARK                         _______ _______ _______ _____ _____    ______ ____
ROOT
ATOM     18  C   UNL     1      49.247  16.010  20.370  0.00  0.00    +0.000 C 
ENDROOT
BRANCH  18  17
ATOM     17  C   UNL     1      49.791  16.528  21.704  0.00  0.00    +0.000 C 
BRANCH  17  16
ATOM     16  C   UNL     1      50.631  17.783  21.457  0.00  0.00    +0.000 C 
BRANCH  16  15
ATOM     15  C   UNL     1      52.010  17.377  20.932  0.00  0.00    +0.001 C 
BRANCH  15  14
ATOM     14  C   UNL     1      52.834  16.780  22.075  0.00  0.00    +0.002 C 
BRANCH  14  13
ATOM     13  C   UNL     1      53.398  15.425  21.642  0.00  0.00    +0.008 C 
BRANCH  13  12
ATOM     12  C   UNL     1      52.915  15.103  20.225  0.00  0.00    +0.014 C 
BRANCH  12  11
ATOM     11  C   UNL     1      52.377  13.670  20.184  0.00  0.00    +0.030 C 
BRANCH  11  10
ATOM     10  C   UNL     1      52.251  13.215  18.729  0.00  0.00    +0.202 C 
BRANCH  10   9
ATOM      9  O   UNL     1      51.054  13.752  18.164  0.00  0.00    -0.350 OA
BRANCH   9   8
ATOM      8  C   UNL     1      51.105  14.135  16.871  0.00  0.00    +0.501 C 
ATOM     43  O   UNL     1      50.924  13.320  15.987  0.00  0.00    -0.514 OA
BRANCH   8   7
ATOM      6  C   UNL     1      50.945  16.478  17.359  0.00  0.00    +0.150 C 
ATOM      7  C   UNL     1      51.371  15.489  16.543  0.00  0.00    -0.060 C 
BRANCH   6   5
ATOM      3  C   UNL     1      51.111  20.219  17.575  0.00  0.00    +0.100 A 
ATOM      4  C   UNL     1      50.849  18.902  17.900  0.00  0.00    -0.026 A 
ATOM      5  C   UNL     1      51.221  17.880  17.019  0.00  0.00    -0.057 A 
ATOM     44  C   UNL     1      51.857  18.199  15.813  0.00  0.00    +0.026 A 
ATOM     45  C   UNL     1      52.114  19.515  15.497  0.00  0.00    +0.033 A 
ATOM     46  C   UNL     1      51.740  20.528  16.369  0.00  0.00    +0.095 A 
BRANCH   3   2
ATOM      1  C   UNL     1      51.201  21.104  19.781  0.00  0.00    +0.242 C 
ATOM      2  O   UNL     1      50.752  21.215  18.429  0.00  0.00    -0.306 OA
ENDBRANCH   3   2
BRANCH  46  47
ATOM     47  O   UNL     1      51.992  21.823  16.050  0.00  0.00    -0.485 OA
ATOM     48  H   UNL     1      51.675  22.083  15.174  0.00  0.00    +0.392 HD
ENDBRANCH  46  47
ENDBRANCH   6   5
ENDBRANCH   8   7
ENDBRANCH   9   8
ENDBRANCH  10   9
ENDBRANCH  11  10
ENDBRANCH  12  11
ENDBRANCH  13  12
ENDBRANCH  14  13
ENDBRANCH  15  14
ENDBRANCH  16  15
ENDBRANCH  17  16
ENDBRANCH  18  17
BRANCH  18  19
ATOM     19  C   UNL     1      48.693  14.596  20.561  0.00  0.00    +0.000 C 
BRANCH  19  20
ATOM     20  C   UNL     1      47.217  14.676  20.955  0.00  0.00    +0.000 C 
BRANCH  20  21
ATOM     21  C   UNL     1      46.363  14.016  19.870  0.00  0.00    +0.000 C 
BRANCH  21  22
ATOM     22  C   UNL     1      47.270  13.496  18.753  0.00  0.00    +0.000 C 
BRANCH  22  23
ATOM     23  C   UNL     1      46.741  13.977  17.401  0.00  0.00    +0.000 C 
BRANCH  23  24
ATOM     24  C   UNL     1      47.544  15.197  16.943  0.00  0.00    +0.000 C 
BRANCH  24  25
ATOM     25  C   UNL     1      46.632  16.426  16.912  0.00  0.00    -0.000 C 
BRANCH  25  26
ATOM     26  C   UNL     1      47.388  17.635  17.467  0.00  0.00    +0.000 C 
BRANCH  26  27
ATOM     27  C   UNL     1      46.753  18.069  18.790  0.00  0.00    +0.000 C 
BRANCH  27  28
ATOM     28  C   UNL     1      47.655  19.099  19.474  0.00  0.00    +0.002 C 
BRANCH  28  29
ATOM     29  C   UNL     1      47.220  19.269  20.932  0.00  0.00    +0.005 C 
BRANCH  29  30
ATOM     30  C   UNL     1      46.252  18.148  21.310  0.00  0.00    +0.010 C 
BRANCH  30  31
ATOM     31  C   UNL     1      44.994  18.751  21.940  0.00  0.00    +0.034 C 
BRANCH  31  32
ATOM     32  C   UNL     1      44.536  19.953  21.113  0.00  0.00    +0.102 C 
BRANCH  32  33
ATOM     33  C   UNL     1      43.542  19.500  20.075  0.00  0.00    +0.460 C 
ATOM     42  O   UNL     1      42.831  18.548  20.296  0.00  0.00    -0.507 OA
BRANCH  33  34
ATOM     34  O   UNL     1      43.446  20.152  18.906  0.00  0.00    -0.342 OA
BRANCH  34  35
ATOM     35  C   UNL     1      42.135  20.327  18.366  0.00  0.00    +0.190 C 
BRANCH  35  36
ATOM     36  C   UNL     1      41.480  21.554  19.004  0.00  0.00    +0.227 C 
BRANCH  36  37
ATOM     37  O   UNL     1      42.314  22.696  18.805  0.00  0.00    -0.542 OA
ATOM     38  H   UNL     1      42.187  23.395  19.462  0.00  0.00    +0.374 HD
ENDBRANCH  36  37
BRANCH  36  39
ATOM     39  C   UNL     1      40.116  21.798  18.356  0.00  0.00    +0.162 C 
BRANCH  39  40
ATOM     40  O   UNL     1      39.560  20.552  17.934  0.00  0.00    -0.561 OA
ATOM     41  H   UNL     1      38.704  20.347  18.336  0.00  0.00    +0.385 HD
ENDBRANCH  39  40
ENDBRANCH  36  39
ENDBRANCH  35  36
ENDBRANCH  34  35
ENDBRANCH  33  34
ENDBRANCH  32  33
ENDBRANCH  31  32
ENDBRANCH  30  31
ENDBRANCH  29  30
ENDBRANCH  28  29
ENDBRANCH  27  28
ENDBRANCH  26  27
ENDBRANCH  25  26
ENDBRANCH  24  25
ENDBRANCH  23  24
ENDBRANCH  22  23
ENDBRANCH  21  22
ENDBRANCH  20  21
ENDBRANCH  19  20
ENDBRANCH  18  19
TORSDOF 35
ENDMDL
MODEL 6
REMARK VINA RESULT:      -4.1      1.828      4.852
REMARK  Name = ZINC95486337
REMARK  36 active torsions:
REMARK  status: ('A' for Active; 'I' for Inactive)
REMARK    1  A    between atoms: C1_1  and  O1_2
REMARK    2  A    between atoms: O1_2  and  C2_3
REMARK    3  A    between atoms: C4_5  and  C8_10
REMARK    4  A    between atoms: C7_8  and  O2_9
REMARK    5  A    between atoms: C9_11  and  C10_12
REMARK    6  A    between atoms: C10_12  and  O4_14
REMARK    7  A    between atoms: O4_14  and  C11_15
REMARK    8  A    between atoms: C11_15  and  C12_16
REMARK    9  A    between atoms: C12_16  and  C13_17
REMARK   10  A    between atoms: C13_17  and  C14_18
REMARK   11  A    between atoms: C14_18  and  C15_19
REMARK   12  A    between atoms: C15_19  and  C16_20
REMARK   13  A    between atoms: C16_20  and  C17_21
REMARK   14  A    between atoms: C17_21  and  C18_22
REMARK   15  A    between atoms: C18_22  and  C19_23
REMARK   16  A    between atoms: C19_23  and  C20_24
REMARK   17  A    between atoms: C20_24  and  C21_25
REMARK   18  A    between atoms: C21_25  and  C22_26
REMARK   19  A    between atoms: C22_26  and  C23_27
REMARK   20  A    between atoms: C23_27  and  C24_28
REMARK   21  A    between atoms: C24_28  and  C25_29
REMARK   22  A    between atoms: C25_29  and  C26_30
REMARK   23  A    between atoms: C26_30  and  C27_31
REMARK   24  A    between atoms: C27_31  and  C28_32
REMARK   25  A    between atoms: C28_32  and  C29_33
REMARK   26  A    between atoms: C29_33  and  C30_34
REMARK   27  A    between atoms: C30_34  and  C31_35
REMARK   28  A    between atoms: C31_35  and  C32_36
REMARK   29  A    between atoms: C32_36  and  C33_37
REMARK   30  A    between atoms: C33_37  and  C34_38
REMARK   31  A    between atoms: C34_38  and  O6_40
REMARK   32  A    between atoms: O6_40  and  C35_41
REMARK   33  A    between atoms: C35_41  and  C36_42
REMARK   34  A    between atoms: C36_42  and  C37_44
REMARK   35  A    between atoms: C36_42  and  O8_46
REMARK   36  A    between atoms: C37_44  and  O7_45
REMARK                            x       y       z     vdW  Elec       q    Type
REMARK                         _______ _______ _______ _____ _____    ______ ____
ROOT
ATOM     18  C   UNL     1      50.477  20.770  19.139  0.00  0.00    +0.000 C 
ENDROOT
BRANCH  18  17
ATOM     17  C   UNL     1      50.066  20.286  20.532  0.00  0.00    +0.000 C 
BRANCH  17  16
ATOM     16  C   UNL     1      48.710  19.582  20.447  0.00  0.00    +0.000 C 
BRANCH  16  15
ATOM     15  C   UNL     1      47.832  20.026  21.619  0.00  0.00    +0.001 C 
BRANCH  15  14
ATOM     14  C   UNL     1      47.550  21.526  21.503  0.00  0.00    +0.002 C 
BRANCH  14  13
ATOM     13  C   UNL     1      46.472  21.760  20.442  0.00  0.00    +0.008 C 
BRANCH  13  12
ATOM     12  C   UNL     1      45.250  22.413  21.094  0.00  0.00    +0.014 C 
BRANCH  12  11
ATOM     11  C   UNL     1      45.065  21.850  22.505  0.00  0.00    +0.030 C 
BRANCH  11  10
ATOM     10  C   UNL     1      43.961  20.791  22.491  0.00  0.00    +0.202 C 
BRANCH  10   9
ATOM      9  O   UNL     1      44.419  19.635  21.787  0.00  0.00    -0.350 OA
BRANCH   9   8
ATOM      8  C   UNL     1      43.589  19.115  20.858  0.00  0.00    +0.501 C 
ATOM     43  O   UNL     1      42.392  19.319  20.929  0.00  0.00    -0.514 OA
BRANCH   8   7
ATOM      6  C   UNL     1      45.278  17.666  19.963  0.00  0.00    +0.150 C 
ATOM      7  C   UNL     1      44.113  18.330  19.800  0.00  0.00    -0.060 C 
BRANCH   6   5
ATOM      3  C   UNL     1      46.481  14.712  17.989  0.00  0.00    +0.100 A 
ATOM      4  C   UNL     1      45.971  15.471  19.025  0.00  0.00    -0.026 A 
ATOM      5  C   UNL     1      45.821  16.853  18.866  0.00  0.00    -0.057 A 
ATOM     44  C   UNL     1      46.187  17.458  17.659  0.00  0.00    +0.026 A 
ATOM     45  C   UNL     1      46.695  16.694  16.631  0.00  0.00    +0.033 A 
ATOM     46  C   UNL     1      46.849  15.323  16.792  0.00  0.00    +0.095 A 
BRANCH   3   2
ATOM      1  C   UNL     1      45.558  12.542  17.680  0.00  0.00    +0.242 C 
ATOM      2  O   UNL     1      46.629  13.368  18.140  0.00  0.00    -0.306 OA
ENDBRANCH   3   2
BRANCH  46  47
ATOM     47  O   UNL     1      47.355  14.576  15.777  0.00  0.00    -0.485 OA
ATOM     48  H   UNL     1      48.104  14.020  16.032  0.00  0.00    +0.392 HD
ENDBRANCH  46  47
ENDBRANCH   6   5
ENDBRANCH   8   7
ENDBRANCH   9   8
ENDBRANCH  10   9
ENDBRANCH  11  10
ENDBRANCH  12  11
ENDBRANCH  13  12
ENDBRANCH  14  13
ENDBRANCH  15  14
ENDBRANCH  16  15
ENDBRANCH  17  16
ENDBRANCH  18  17
BRANCH  18  19
ATOM     19  C   UNL     1      51.978  21.072  19.128  0.00  0.00    +0.000 C 
BRANCH  19  20
ATOM     20  C   UNL     1      52.588  20.569  17.818  0.00  0.00    +0.000 C 
BRANCH  20  21
ATOM     21  C   UNL     1      51.658  20.921  16.655  0.00  0.00    +0.000 C 
BRANCH  21  22
ATOM     22  C   UNL     1      51.803  19.873  15.549  0.00  0.00    +0.000 C 
BRANCH  22  23
ATOM     23  C   UNL     1      51.710  18.473  16.159  0.00  0.00    +0.000 C 
BRANCH  23  24
ATOM     24  C   UNL     1      50.248  18.150  16.473  0.00  0.00    +0.000 C 
BRANCH  24  25
ATOM     25  C   UNL     1      50.175  17.289  17.736  0.00  0.00    -0.000 C 
BRANCH  25  26
ATOM     26  C   UNL     1      51.591  16.940  18.197  0.00  0.00    +0.000 C 
BRANCH  26  27
ATOM     27  C   UNL     1      51.540  16.367  19.615  0.00  0.00    +0.000 C 
BRANCH  27  28
ATOM     28  C   UNL     1      51.037  14.922  19.564  0.00  0.00    +0.002 C 
BRANCH  28  29
ATOM     29  C   UNL     1      52.174  14.002  19.115  0.00  0.00    +0.005 C 
BRANCH  29  30
ATOM     30  C   UNL     1      51.601  12.644  18.708  0.00  0.00    +0.010 C 
BRANCH  30  31
ATOM     31  C   UNL     1      52.288  12.163  17.428  0.00  0.00    +0.034 C 
BRANCH  31  32
ATOM     32  C   UNL     1      51.244  11.577  16.477  0.00  0.00    +0.102 C 
BRANCH  32  33
ATOM     33  C   UNL     1      50.744  12.657  15.552  0.00  0.00    +0.460 C 
ATOM     42  O   UNL     1      49.895  13.429  15.928  0.00  0.00    -0.507 OA
BRANCH  33  34
ATOM     34  O   UNL     1      51.242  12.759  14.309  0.00  0.00    -0.342 OA
BRANCH  34  35
ATOM     35  C   UNL     1      50.322  12.606  13.227  0.00  0.00    +0.190 C 
BRANCH  35  36
ATOM     36  C   UNL     1      50.973  13.094  11.931  0.00  0.00    +0.227 C 
BRANCH  36  37
ATOM     37  O   UNL     1      52.140  13.855  12.242  0.00  0.00    -0.542 OA
ATOM     38  H   UNL     1      52.035  14.443  13.004  0.00  0.00    +0.374 HD
ENDBRANCH  36  37
BRANCH  36  39
ATOM     39  C   UNL     1      51.363  11.889  11.072  0.00  0.00    +0.162 C 
BRANCH  39  40
ATOM     40  O   UNL     1      52.002  12.343   9.878  0.00  0.00    -0.561 OA
ATOM     41  H   UNL     1      52.333  13.251   9.929  0.00  0.00    +0.385 HD
ENDBRANCH  39  40
ENDBRANCH  36  39
ENDBRANCH  35  36
ENDBRANCH  34  35
ENDBRANCH  33  34
ENDBRANCH  32  33
ENDBRANCH  31  32
ENDBRANCH  30  31
ENDBRANCH  29  30
ENDBRANCH  28  29
ENDBRANCH  27  28
ENDBRANCH  26  27
ENDBRANCH  25  26
ENDBRANCH  24  25
ENDBRANCH  23  24
ENDBRANCH  22  23
ENDBRANCH  21  22
ENDBRANCH  20  21
ENDBRANCH  19  20
ENDBRANCH  18  19
TORSDOF 35
ENDMDL
MODEL 7
REMARK VINA RESULT:      -4.1      2.639      7.909
REMARK  Name = ZINC95486337
REMARK  36 active torsions:
REMARK  status: ('A' for Active; 'I' for Inactive)
REMARK    1  A    between atoms: C1_1  and  O1_2
REMARK    2  A    between atoms: O1_2  and  C2_3
REMARK    3  A    between atoms: C4_5  and  C8_10
REMARK    4  A    between atoms: C7_8  and  O2_9
REMARK    5  A    between atoms: C9_11  and  C10_12
REMARK    6  A    between atoms: C10_12  and  O4_14
REMARK    7  A    between atoms: O4_14  and  C11_15
REMARK    8  A    between atoms: C11_15  and  C12_16
REMARK    9  A    between atoms: C12_16  and  C13_17
REMARK   10  A    between atoms: C13_17  and  C14_18
REMARK   11  A    between atoms: C14_18  and  C15_19
REMARK   12  A    between atoms: C15_19  and  C16_20
REMARK   13  A    between atoms: C16_20  and  C17_21
REMARK   14  A    between atoms: C17_21  and  C18_22
REMARK   15  A    between atoms: C18_22  and  C19_23
REMARK   16  A    between atoms: C19_23  and  C20_24
REMARK   17  A    between atoms: C20_24  and  C21_25
REMARK   18  A    between atoms: C21_25  and  C22_26
REMARK   19  A    between atoms: C22_26  and  C23_27
REMARK   20  A    between atoms: C23_27  and  C24_28
REMARK   21  A    between atoms: C24_28  and  C25_29
REMARK   22  A    between atoms: C25_29  and  C26_30
REMARK   23  A    between atoms: C26_30  and  C27_31
REMARK   24  A    between atoms: C27_31  and  C28_32
REMARK   25  A    between atoms: C28_32  and  C29_33
REMARK   26  A    between atoms: C29_33  and  C30_34
REMARK   27  A    between atoms: C30_34  and  C31_35
REMARK   28  A    between atoms: C31_35  and  C32_36
REMARK   29  A    between atoms: C32_36  and  C33_37
REMARK   30  A    between atoms: C33_37  and  C34_38
REMARK   31  A    between atoms: C34_38  and  O6_40
REMARK   32  A    between atoms: O6_40  and  C35_41
REMARK   33  A    between atoms: C35_41  and  C36_42
REMARK   34  A    between atoms: C36_42  and  C37_44
REMARK   35  A    between atoms: C36_42  and  O8_46
REMARK   36  A    between atoms: C37_44  and  O7_45
REMARK                            x       y       z     vdW  Elec       q    Type
REMARK                         _______ _______ _______ _____ _____    ______ ____
ROOT
ATOM     18  C   UNL     1      49.439  12.967  14.914  0.00  0.00    +0.000 C 
ENDROOT
BRANCH  18  17
ATOM     17  C   UNL     1      48.156  12.523  14.207  0.00  0.00    +0.000 C 
BRANCH  17  16
ATOM     16  C   UNL     1      47.265  11.766  15.195  0.00  0.00    +0.000 C 
BRANCH  16  15
ATOM     15  C   UNL     1      47.738  12.046  16.623  0.00  0.00    +0.001 C 
BRANCH  15  14
ATOM     14  C   UNL     1      46.601  11.748  17.603  0.00  0.00    +0.002 C 
BRANCH  14  13
ATOM     13  C   UNL     1      45.603  12.908  17.592  0.00  0.00    +0.008 C 
BRANCH  13  12
ATOM     12  C   UNL     1      45.289  13.322  19.032  0.00  0.00    +0.014 C 
BRANCH  12  11
ATOM     11  C   UNL     1      46.596  13.597  19.780  0.00  0.00    +0.030 C 
BRANCH  11  10
ATOM     10  C   UNL     1      46.352  14.651  20.862  0.00  0.00    +0.202 C 
BRANCH  10   9
ATOM      9  O   UNL     1      47.508  15.480  20.989  0.00  0.00    -0.350 OA
BRANCH   9   8
ATOM      8  C   UNL     1      47.321  16.721  21.486  0.00  0.00    +0.501 C 
ATOM     43  O   UNL     1      46.328  16.969  22.145  0.00  0.00    -0.514 OA
BRANCH   8   7
ATOM      6  C   UNL     1      49.188  17.581  20.252  0.00  0.00    +0.150 C 
ATOM      7  C   UNL     1      48.280  17.735  21.240  0.00  0.00    -0.060 C 
BRANCH   6   5
ATOM      3  C   UNL     1      51.317  20.100  18.465  0.00  0.00    +0.100 A 
ATOM      4  C   UNL     1      50.381  19.111  18.698  0.00  0.00    -0.026 A 
ATOM      5  C   UNL     1      50.182  18.632  19.997  0.00  0.00    -0.057 A 
ATOM     44  C   UNL     1      50.933  19.159  21.055  0.00  0.00    +0.026 A 
ATOM     45  C   UNL     1      51.865  20.145  20.814  0.00  0.00    +0.033 A 
ATOM     46  C   UNL     1      52.065  20.615  19.523  0.00  0.00    +0.095 A 
BRANCH   3   2
ATOM      1  C   UNL     1      51.911  19.617  16.213  0.00  0.00    +0.242 C 
ATOM      2  O   UNL     1      51.512  20.568  17.203  0.00  0.00    -0.306 OA
ENDBRANCH   3   2
BRANCH  46  47
ATOM     47  O   UNL     1      52.988  21.584  19.291  0.00  0.00    -0.485 OA
ATOM     48  H   UNL     1      53.355  21.573  18.397  0.00  0.00    +0.392 HD
ENDBRANCH  46  47
ENDBRANCH   6   5
ENDBRANCH   8   7
ENDBRANCH   9   8
ENDBRANCH  10   9
ENDBRANCH  11  10
ENDBRANCH  12  11
ENDBRANCH  13  12
ENDBRANCH  14  13
ENDBRANCH  15  14
ENDBRANCH  16  15
ENDBRANCH  17  16
ENDBRANCH  18  17
BRANCH  18  19
ATOM     19  C   UNL     1      50.650  12.578  14.063  0.00  0.00    +0.000 C 
BRANCH  19  20
ATOM     20  C   UNL     1      50.977  11.100  14.289  0.00  0.00    +0.000 C 
BRANCH  20  21
ATOM     21  C   UNL     1      51.141  10.838  15.787  0.00  0.00    +0.000 C 
BRANCH  21  22
ATOM     22  C   UNL     1      52.553  11.236  16.224  0.00  0.00    +0.000 C 
BRANCH  22  23
ATOM     23  C   UNL     1      52.520  11.725  17.672  0.00  0.00    +0.000 C 
BRANCH  23  24
ATOM     24  C   UNL     1      51.095  12.150  18.035  0.00  0.00    +0.000 C 
BRANCH  24  25
ATOM     25  C   UNL     1      51.136  13.476  18.796  0.00  0.00    -0.000 C 
BRANCH  25  26
ATOM     26  C   UNL     1      49.971  14.359  18.347  0.00  0.00    +0.000 C 
BRANCH  26  27
ATOM     27  C   UNL     1      50.503  15.509  17.489  0.00  0.00    +0.000 C 
BRANCH  27  28
ATOM     28  C   UNL     1      49.329  16.266  16.865  0.00  0.00    +0.002 C 
BRANCH  28  29
ATOM     29  C   UNL     1      48.017  15.762  17.471  0.00  0.00    +0.005 C 
BRANCH  29  30
ATOM     30  C   UNL     1      46.843  16.511  16.838  0.00  0.00    +0.010 C 
BRANCH  30  31
ATOM     31  C   UNL     1      45.972  17.118  17.941  0.00  0.00    +0.034 C 
BRANCH  31  32
ATOM     32  C   UNL     1      46.152  18.637  17.954  0.00  0.00    +0.102 C 
BRANCH  32  33
ATOM     33  C   UNL     1      45.115  19.257  18.856  0.00  0.00    +0.460 C 
ATOM     42  O   UNL     1      45.259  19.221  20.055  0.00  0.00    -0.507 OA
BRANCH  33  34
ATOM     34  O   UNL     1      44.032  19.849  18.328  0.00  0.00    -0.342 OA
BRANCH  34  35
ATOM     35  C   UNL     1      43.279  20.708  19.185  0.00  0.00    +0.190 C 
BRANCH  35  36
ATOM     36  C   UNL     1      41.810  20.278  19.176  0.00  0.00    +0.227 C 
BRANCH  36  37
ATOM     37  O   UNL     1      41.414  19.911  20.499  0.00  0.00    -0.542 OA
ATOM     38  H   UNL     1      42.077  19.394  20.979  0.00  0.00    +0.374 HD
ENDBRANCH  36  37
BRANCH  36  39
ATOM     39  C   UNL     1      40.942  21.439  18.687  0.00  0.00    +0.162 C 
BRANCH  39  40
ATOM     40  O   UNL     1      41.737  22.622  18.596  0.00  0.00    -0.561 OA
ATOM     41  H   UNL     1      41.607  23.121  17.778  0.00  0.00    +0.385 HD
ENDBRANCH  39  40
ENDBRANCH  36  39
ENDBRANCH  35  36
ENDBRANCH  34  35
ENDBRANCH  33  34
ENDBRANCH  32  33
ENDBRANCH  31  32
ENDBRANCH  30  31
ENDBRANCH  29  30
ENDBRANCH  28  29
ENDBRANCH  27  28
ENDBRANCH  26  27
ENDBRANCH  25  26
ENDBRANCH  24  25
ENDBRANCH  23  24
ENDBRANCH  22  23
ENDBRANCH  21  22
ENDBRANCH  20  21
ENDBRANCH  19  20
ENDBRANCH  18  19
TORSDOF 35
ENDMDL
MODEL 8
REMARK VINA RESULT:      -4.1      2.547      7.837
REMARK  Name = ZINC95486337
REMARK  36 active torsions:
REMARK  status: ('A' for Active; 'I' for Inactive)
REMARK    1  A    between atoms: C1_1  and  O1_2
REMARK    2  A    between atoms: O1_2  and  C2_3
REMARK    3  A    between atoms: C4_5  and  C8_10
REMARK    4  A    between atoms: C7_8  and  O2_9
REMARK    5  A    between atoms: C9_11  and  C10_12
REMARK    6  A    between atoms: C10_12  and  O4_14
REMARK    7  A    between atoms: O4_14  and  C11_15
REMARK    8  A    between atoms: C11_15  and  C12_16
REMARK    9  A    between atoms: C12_16  and  C13_17
REMARK   10  A    between atoms: C13_17  and  C14_18
REMARK   11  A    between atoms: C14_18  and  C15_19
REMARK   12  A    between atoms: C15_19  and  C16_20
REMARK   13  A    between atoms: C16_20  and  C17_21
REMARK   14  A    between atoms: C17_21  and  C18_22
REMARK   15  A    between atoms: C18_22  and  C19_23
REMARK   16  A    between atoms: C19_23  and  C20_24
REMARK   17  A    between atoms: C20_24  and  C21_25
REMARK   18  A    between atoms: C21_25  and  C22_26
REMARK   19  A    between atoms: C22_26  and  C23_27
REMARK   20  A    between atoms: C23_27  and  C24_28
REMARK   21  A    between atoms: C24_28  and  C25_29
REMARK   22  A    between atoms: C25_29  and  C26_30
REMARK   23  A    between atoms: C26_30  and  C27_31
REMARK   24  A    between atoms: C27_31  and  C28_32
REMARK   25  A    between atoms: C28_32  and  C29_33
REMARK   26  A    between atoms: C29_33  and  C30_34
REMARK   27  A    between atoms: C30_34  and  C31_35
REMARK   28  A    between atoms: C31_35  and  C32_36
REMARK   29  A    between atoms: C32_36  and  C33_37
REMARK   30  A    between atoms: C33_37  and  C34_38
REMARK   31  A    between atoms: C34_38  and  O6_40
REMARK   32  A    between atoms: O6_40  and  C35_41
REMARK   33  A    between atoms: C35_41  and  C36_42
REMARK   34  A    between atoms: C36_42  and  C37_44
REMARK   35  A    between atoms: C36_42  and  O8_46
REMARK   36  A    between atoms: C37_44  and  O7_45
REMARK                            x       y       z     vdW  Elec       q    Type
REMARK                         _______ _______ _______ _____ _____    ______ ____
ROOT
ATOM     18  C   UNL     1      43.912  20.605  19.003  0.00  0.00    +0.000 C 
ENDROOT
BRANCH  18  17
ATOM     17  C   UNL     1      43.466  19.257  19.575  0.00  0.00    +0.000 C 
BRANCH  17  16
ATOM     16  C   UNL     1      43.241  19.394  21.083  0.00  0.00    +0.000 C 
BRANCH  16  15
ATOM     15  C   UNL     1      44.227  18.493  21.828  0.00  0.00    +0.001 C 
BRANCH  15  14
ATOM     14  C   UNL     1      44.423  17.193  21.043  0.00  0.00    +0.002 C 
BRANCH  14  13
ATOM     13  C   UNL     1      45.064  16.142  21.951  0.00  0.00    +0.008 C 
BRANCH  13  12
ATOM     12  C   UNL     1      46.260  15.511  21.233  0.00  0.00    +0.014 C 
BRANCH  12  11
ATOM     11  C   UNL     1      46.165  13.986  21.330  0.00  0.00    +0.030 C 
BRANCH  11  10
ATOM     10  C   UNL     1      45.302  13.456  20.183  0.00  0.00    +0.202 C 
BRANCH  10   9
ATOM      9  O   UNL     1      45.764  14.002  18.947  0.00  0.00    -0.350 OA
BRANCH   9   8
ATOM      8  C   UNL     1      45.715  13.196  17.865  0.00  0.00    +0.501 C 
ATOM     43  O   UNL     1      44.691  12.596  17.599  0.00  0.00    -0.514 OA
BRANCH   8   7
ATOM      6  C   UNL     1      48.084  12.938  17.595  0.00  0.00    +0.150 C 
ATOM      7  C   UNL     1      46.858  13.049  17.039  0.00  0.00    -0.060 C 
BRANCH   6   5
ATOM      3  C   UNL     1      51.563  12.121  16.455  0.00  0.00    +0.100 A 
ATOM      4  C   UNL     1      50.453  12.262  17.266  0.00  0.00    -0.026 A 
ATOM      5  C   UNL     1      49.268  12.786  16.738  0.00  0.00    -0.057 A 
ATOM     44  C   UNL     1      49.213  13.163  15.391  0.00  0.00    +0.026 A 
ATOM     45  C   UNL     1      50.325  13.019  14.590  0.00  0.00    +0.033 A 
ATOM     46  C   UNL     1      51.502  12.505  15.116  0.00  0.00    +0.095 A 
BRANCH   3   2
ATOM      1  C   UNL     1      52.979  11.859  18.348  0.00  0.00    +0.242 C 
ATOM      2  O   UNL     1      52.717  11.613  16.965  0.00  0.00    -0.306 OA
ENDBRANCH   3   2
BRANCH  46  47
ATOM     47  O   UNL     1      52.596  12.370  14.322  0.00  0.00    -0.485 OA
ATOM     48  H   UNL     1      53.038  11.514  14.402  0.00  0.00    +0.392 HD
ENDBRANCH  46  47
ENDBRANCH   6   5
ENDBRANCH   8   7
ENDBRANCH   9   8
ENDBRANCH  10   9
ENDBRANCH  11  10
ENDBRANCH  12  11
ENDBRANCH  13  12
ENDBRANCH  14  13
ENDBRANCH  15  14
ENDBRANCH  16  15
ENDBRANCH  17  16
ENDBRANCH  18  17
BRANCH  18  19
ATOM     19  C   UNL     1      43.357  21.736  19.872  0.00  0.00    +0.000 C 
BRANCH  19  20
ATOM     20  C   UNL     1      44.093  23.037  19.544  0.00  0.00    +0.000 C 
BRANCH  20  21
ATOM     21  C   UNL     1      45.217  23.256  20.559  0.00  0.00    +0.000 C 
BRANCH  21  22
ATOM     22  C   UNL     1      44.862  22.555  21.873  0.00  0.00    +0.000 C 
BRANCH  22  23
ATOM     23  C   UNL     1      46.070  21.758  22.367  0.00  0.00    +0.000 C 
BRANCH  23  24
ATOM     24  C   UNL     1      47.304  22.139  21.546  0.00  0.00    +0.000 C 
BRANCH  24  25
ATOM     25  C   UNL     1      48.256  20.943  21.470  0.00  0.00    -0.000 C 
BRANCH  25  26
ATOM     26  C   UNL     1      48.665  20.709  20.015  0.00  0.00    +0.000 C 
BRANCH  26  27
ATOM     27  C   UNL     1      47.435  20.311  19.197  0.00  0.00    +0.000 C 
BRANCH  27  28
ATOM     28  C   UNL     1      47.174  18.813  19.364  0.00  0.00    +0.002 C 
BRANCH  28  29
ATOM     29  C   UNL     1      47.033  18.162  17.986  0.00  0.00    +0.005 C 
BRANCH  29  30
ATOM     30  C   UNL     1      47.702  16.787  18.001  0.00  0.00    +0.010 C 
BRANCH  30  31
ATOM     31  C   UNL     1      49.002  16.844  17.196  0.00  0.00    +0.034 C 
BRANCH  31  32
ATOM     32  C   UNL     1      50.126  16.184  17.995  0.00  0.00    +0.102 C 
BRANCH  32  33
ATOM     33  C   UNL     1      50.944  17.247  18.684  0.00  0.00    +0.460 C 
ATOM     42  O   UNL     1      50.524  17.776  19.686  0.00  0.00    -0.507 OA
BRANCH  33  34
ATOM     34  O   UNL     1      52.137  17.606  18.184  0.00  0.00    -0.342 OA
BRANCH  34  35
ATOM     35  C   UNL     1      52.419  19.005  18.120  0.00  0.00    +0.190 C 
BRANCH  35  36
ATOM     36  C   UNL     1      51.439  19.679  17.156  0.00  0.00    +0.227 C 
BRANCH  36  37
ATOM     37  O   UNL     1      51.300  21.057  17.506  0.00  0.00    -0.542 OA
ATOM     38  H   UNL     1      50.437  21.434  17.285  0.00  0.00    +0.374 HD
ENDBRANCH  36  37
BRANCH  36  39
ATOM     39  C   UNL     1      51.973  19.567  15.726  0.00  0.00    +0.162 C 
BRANCH  39  40
ATOM     40  O   UNL     1      52.366  18.218  15.470  0.00  0.00    -0.561 OA
ATOM     41  H   UNL     1      52.225  17.934  14.556  0.00  0.00    +0.385 HD
ENDBRANCH  39  40
ENDBRANCH  36  39
ENDBRANCH  35  36
ENDBRANCH  34  35
ENDBRANCH  33  34
ENDBRANCH  32  33
ENDBRANCH  31  32
ENDBRANCH  30  31
ENDBRANCH  29  30
ENDBRANCH  28  29
ENDBRANCH  27  28
ENDBRANCH  26  27
ENDBRANCH  25  26
ENDBRANCH  24  25
ENDBRANCH  23  24
ENDBRANCH  22  23
ENDBRANCH  21  22
ENDBRANCH  20  21
ENDBRANCH  19  20
ENDBRANCH  18  19
TORSDOF 35
ENDMDL
MODEL 9
REMARK VINA RESULT:      -4.0      2.322      6.340
REMARK  Name = ZINC95486337
REMARK  36 active torsions:
REMARK  status: ('A' for Active; 'I' for Inactive)
REMARK    1  A    between atoms: C1_1  and  O1_2
REMARK    2  A    between atoms: O1_2  and  C2_3
REMARK    3  A    between atoms: C4_5  and  C8_10
REMARK    4  A    between atoms: C7_8  and  O2_9
REMARK    5  A    between atoms: C9_11  and  C10_12
REMARK    6  A    between atoms: C10_12  and  O4_14
REMARK    7  A    between atoms: O4_14  and  C11_15
REMARK    8  A    between atoms: C11_15  and  C12_16
REMARK    9  A    between atoms: C12_16  and  C13_17
REMARK   10  A    between atoms: C13_17  and  C14_18
REMARK   11  A    between atoms: C14_18  and  C15_19
REMARK   12  A    between atoms: C15_19  and  C16_20
REMARK   13  A    between atoms: C16_20  and  C17_21
REMARK   14  A    between atoms: C17_21  and  C18_22
REMARK   15  A    between atoms: C18_22  and  C19_23
REMARK   16  A    between atoms: C19_23  and  C20_24
REMARK   17  A    between atoms: C20_24  and  C21_25
REMARK   18  A    between atoms: C21_25  and  C22_26
REMARK   19  A    between atoms: C22_26  and  C23_27
REMARK   20  A    between atoms: C23_27  and  C24_28
REMARK   21  A    between atoms: C24_28  and  C25_29
REMARK   22  A    between atoms: C25_29  and  C26_30
REMARK   23  A    between atoms: C26_30  and  C27_31
REMARK   24  A    between atoms: C27_31  and  C28_32
REMARK   25  A    between atoms: C28_32  and  C29_33
REMARK   26  A    between atoms: C29_33  and  C30_34
REMARK   27  A    between atoms: C30_34  and  C31_35
REMARK   28  A    between atoms: C31_35  and  C32_36
REMARK   29  A    between atoms: C32_36  and  C33_37
REMARK   30  A    between atoms: C33_37  and  C34_38
REMARK   31  A    between atoms: C34_38  and  O6_40
REMARK   32  A    between atoms: O6_40  and  C35_41
REMARK   33  A    between atoms: C35_41  and  C36_42
REMARK   34  A    between atoms: C36_42  and  C37_44
REMARK   35  A    between atoms: C36_42  and  O8_46
REMARK   36  A    between atoms: C37_44  and  O7_45
REMARK                            x       y       z     vdW  Elec       q    Type
REMARK                         _______ _______ _______ _____ _____    ______ ____
ROOT
ATOM     18  C   UNL     1      51.187  14.203  16.100  0.00  0.00    +0.000 C 
ENDROOT
BRANCH  18  17
ATOM     17  C   UNL     1      49.928  14.015  16.949  0.00  0.00    +0.000 C 
BRANCH  17  16
ATOM     16  C   UNL     1      48.828  13.379  16.096  0.00  0.00    +0.000 C 
BRANCH  16  15
ATOM     15  C   UNL     1      48.161  12.250  16.885  0.00  0.00    +0.001 C 
BRANCH  15  14
ATOM     14  C   UNL     1      46.779  11.963  16.293  0.00  0.00    +0.002 C 
BRANCH  14  13
ATOM     13  C   UNL     1      45.714  12.146  17.377  0.00  0.00    +0.008 C 
BRANCH  13  12
ATOM     12  C   UNL     1      46.342  12.822  18.598  0.00  0.00    +0.014 C 
BRANCH  12  11
ATOM     11  C   UNL     1      45.357  13.840  19.179  0.00  0.00    +0.030 C 
BRANCH  11  10
ATOM     10  C   UNL     1      45.966  15.242  19.096  0.00  0.00    +0.202 C 
BRANCH  10   9
ATOM      9  O   UNL     1      46.459  15.469  17.775  0.00  0.00    -0.350 OA
BRANCH   9   8
ATOM      8  C   UNL     1      46.600  16.754  17.387  0.00  0.00    +0.501 C 
ATOM     43  O   UNL     1      47.390  17.042  16.507  0.00  0.00    -0.514 OA
BRANCH   8   7
ATOM      6  C   UNL     1      46.251  19.052  17.979  0.00  0.00    +0.150 C 
ATOM      7  C   UNL     1      45.827  17.770  18.004  0.00  0.00    -0.060 C 
BRANCH   6   5
ATOM      3  C   UNL     1      43.310  20.971  19.298  0.00  0.00    +0.100 A 
ATOM      4  C   UNL     1      44.058  19.979  18.693  0.00  0.00    -0.026 A 
ATOM      5  C   UNL     1      45.450  20.104  18.619  0.00  0.00    -0.057 A 
ATOM     44  C   UNL     1      46.076  21.233  19.160  0.00  0.00    +0.026 A 
ATOM     45  C   UNL     1      45.323  22.217  19.761  0.00  0.00    +0.033 A 
ATOM     46  C   UNL     1      43.942  22.096  19.828  0.00  0.00    +0.095 A 
BRANCH   3   2
ATOM      1  C   UNL     1      41.307  20.167  18.299  0.00  0.00    +0.242 C 
ATOM      2  O   UNL     1      41.957  20.853  19.371  0.00  0.00    -0.306 OA
ENDBRANCH   3   2
BRANCH  46  47
ATOM     47  O   UNL     1      43.204  23.072  20.417  0.00  0.00    -0.485 OA
ATOM     48  H   UNL     1      43.683  23.577  21.089  0.00  0.00    +0.392 HD
ENDBRANCH  46  47
ENDBRANCH   6   5
ENDBRANCH   8   7
ENDBRANCH   9   8
ENDBRANCH  10   9
ENDBRANCH  11  10
ENDBRANCH  12  11
ENDBRANCH  13  12
ENDBRANCH  14  13
ENDBRANCH  15  14
ENDBRANCH  16  15
ENDBRANCH  17  16
ENDBRANCH  18  17
BRANCH  18  19
ATOM     19  C   UNL     1      51.019  13.466  14.769  0.00  0.00    +0.000 C 
BRANCH  19  20
ATOM     20  C   UNL     1      52.116  12.408  14.631  0.00  0.00    +0.000 C 
BRANCH  20  21
ATOM     21  C   UNL     1      51.478  11.018  14.572  0.00  0.00    +0.000 C 
BRANCH  21  22
ATOM     22  C   UNL     1      51.711  10.292  15.898  0.00  0.00    +0.000 C 
BRANCH  22  23
ATOM     23  C   UNL     1      53.161  10.492  16.342  0.00  0.00    +0.000 C 
BRANCH  23  24
ATOM     24  C   UNL     1      53.237  10.451  17.870  0.00  0.00    +0.000 C 
BRANCH  24  25
ATOM     25  C   UNL     1      52.978  11.850  18.432  0.00  0.00    -0.000 C 
BRANCH  25  26
ATOM     26  C   UNL     1      51.705  11.831  19.280  0.00  0.00    +0.000 C 
BRANCH  26  27
ATOM     27  C   UNL     1      51.658  13.083  20.158  0.00  0.00    +0.000 C 
BRANCH  27  28
ATOM     28  C   UNL     1      52.691  14.095  19.659  0.00  0.00    +0.002 C 
BRANCH  28  29
ATOM     29  C   UNL     1      52.384  15.473  20.251  0.00  0.00    +0.005 C 
BRANCH  29  30
ATOM     30  C   UNL     1      50.881  15.593  20.508  0.00  0.00    +0.010 C 
BRANCH  30  31
ATOM     31  C   UNL     1      50.498  17.071  20.609  0.00  0.00    +0.034 C 
BRANCH  31  32
ATOM     32  C   UNL     1      49.449  17.399  19.545  0.00  0.00    +0.102 C 
BRANCH  32  33
ATOM     33  C   UNL     1      49.790  18.714  18.892  0.00  0.00    +0.460 C 
ATOM     42  O   UNL     1      49.442  19.751  19.405  0.00  0.00    -0.507 OA
BRANCH  33  34
ATOM     34  O   UNL     1      50.481  18.733  17.741  0.00  0.00    -0.342 OA
BRANCH  34  35
ATOM     35  C   UNL     1      51.893  18.933  17.834  0.00  0.00    +0.190 C 
BRANCH  35  36
ATOM     36  C   UNL     1      52.401  19.588  16.548  0.00  0.00    +0.227 C 
BRANCH  36  37
ATOM     37  O   UNL     1      52.220  18.690  15.453  0.00  0.00    -0.542 OA
ATOM     38  H   UNL     1      51.398  18.181  15.493  0.00  0.00    +0.374 HD
ENDBRANCH  36  37
BRANCH  36  39
ATOM     39  C   UNL     1      51.617  20.876  16.287  0.00  0.00    +0.162 C 
BRANCH  39  40
ATOM     40  O   UNL     1      51.316  21.510  17.532  0.00  0.00    -0.561 OA
ATOM     41  H   UNL     1      50.588  22.145  17.484  0.00  0.00    +0.385 HD
ENDBRANCH  39  40
ENDBRANCH  36  39
ENDBRANCH  35  36
ENDBRANCH  34  35
ENDBRANCH  33  34
ENDBRANCH  32  33
ENDBRANCH  31  32
ENDBRANCH  30  31
ENDBRANCH  29  30
ENDBRANCH  28  29
ENDBRANCH  27  28
ENDBRANCH  26  27
ENDBRANCH  25  26
ENDBRANCH  24  25
ENDBRANCH  23  24
ENDBRANCH  22  23
ENDBRANCH  21  22
ENDBRANCH  20  21
ENDBRANCH  19  20
ENDBRANCH  18  19
TORSDOF 35
ENDMDL
