MODEL 1
REMARK VINA RESULT:      -6.0      0.000      0.000
REMARK  Name = ZINC95486270
REMARK  10 active torsions:
REMARK  status: ('A' for Active; 'I' for Inactive)
REMARK    1  A    between atoms: C1_1  and  C2_2
REMARK    2  A    between atoms: C2_2  and  C3_3
REMARK    3  A    between atoms: C2_2  and  C4_4
REMARK    4  A    between atoms: C2_2  and  O5_28
REMARK    5  A    between atoms: C5_5  and  C6_6
REMARK    6  A    between atoms: C7_7  and  O4_26
REMARK    7  A    between atoms: C9_9  and  O3_24
REMARK    8  A    between atoms: C12_13  and  C15_18
REMARK    9  A    between atoms: O3_24  and  C21_25
REMARK   10  A    between atoms: O4_26  and  C22_27
REMARK                            x       y       z     vdW  Elec       q    Type
REMARK                         _______ _______ _______ _____ _____    ______ ____
ROOT
ATOM      7  C   UNL     1      46.398  17.937  20.528  0.00  0.00    -0.132 A 
ATOM      8  C   UNL     1      45.338  17.115  20.936  0.00  0.00    +0.208 A 
ATOM     11  C   UNL     1      45.076  15.925  20.275  0.00  0.00    -0.200 A 
ATOM     12  C   UNL     1      45.863  15.533  19.206  0.00  0.00    +0.250 A 
ATOM     15  C   UNL     1      46.931  16.344  18.790  0.00  0.00    -0.313 A 
ATOM     16  C   UNL     1      47.784  15.940  17.666  0.00  0.00    +0.405 C 
ATOM     17  O   UNL     1      47.743  14.818  17.206  0.00  0.00    -0.433 OA
ATOM     18  C   UNL     1      48.709  17.005  17.099  0.00  0.00    +0.036 C 
ATOM     19  C   UNL     1      49.281  17.782  18.294  0.00  0.00    +0.232 C 
ATOM     26  O   UNL     1      48.209  18.359  19.040  0.00  0.00    -0.281 OA
ATOM     27  C   UNL     1      47.196  17.559  19.445  0.00  0.00    +0.272 A 
ENDROOT
BRANCH  19  20
ATOM     20  C   UNL     1      50.190  18.876  17.795  0.00  0.00    -0.091 A 
ATOM     21  C   UNL     1      51.018  18.647  16.711  0.00  0.00    +0.042 A 
ATOM     22  C   UNL     1      51.851  19.650  16.254  0.00  0.00    +0.004 A 
ATOM     23  C   UNL     1      51.858  20.882  16.880  0.00  0.00    +0.013 A 
ATOM     24  C   UNL     1      51.030  21.111  17.964  0.00  0.00    +0.007 A 
ATOM     25  C   UNL     1      50.193  20.110  18.418  0.00  0.00    +0.022 A 
ENDBRANCH  19  20
BRANCH   7   6
ATOM      5  C   UNL     1      45.948  20.283  20.963  0.00  0.00    -0.041 C 
ATOM      6  C   UNL     1      46.668  19.203  21.238  0.00  0.00    +0.040 C 
BRANCH   5   2
ATOM      1  C   UNL     1      44.249  21.602  19.728  0.00  0.00    +0.013 C 
ATOM      2  C   UNL     1      45.086  20.321  19.727  0.00  0.00    +0.157 C 
ATOM     28  C   UNL     1      45.977  20.294  18.483  0.00  0.00    +0.058 C 
BRANCH   2   3
ATOM      3  O   UNL     1      44.219  19.185  19.717  0.00  0.00    -0.549 OA
ATOM      4  H   UNL     1      44.659  18.353  19.940  0.00  0.00    +0.367 HD
ENDBRANCH   2   3
ENDBRANCH   5   2
ENDBRANCH   7   6
BRANCH   8   9
ATOM      9  O   UNL     1      44.563  17.487  21.985  0.00  0.00    -0.295 OA
ATOM     10  C   UNL     1      43.586  16.547  22.436  0.00  0.00    +0.247 C 
ENDBRANCH   8   9
BRANCH  12  13
ATOM     13  O   UNL     1      45.603  14.368  18.561  0.00  0.00    -0.283 OA
ATOM     14  C   UNL     1      45.113  13.284  19.353  0.00  0.00    +0.245 C 
ENDBRANCH  12  13
TORSDOF 6
ENDMDL
MODEL 2
REMARK VINA RESULT:      -6.0      1.774      2.749
REMARK  Name = ZINC95486270
REMARK  10 active torsions:
REMARK  status: ('A' for Active; 'I' for Inactive)
REMARK    1  A    between atoms: C1_1  and  C2_2
REMARK    2  A    between atoms: C2_2  and  C3_3
REMARK    3  A    between atoms: C2_2  and  C4_4
REMARK    4  A    between atoms: C2_2  and  O5_28
REMARK    5  A    between atoms: C5_5  and  C6_6
REMARK    6  A    between atoms: C7_7  and  O4_26
REMARK    7  A    between atoms: C9_9  and  O3_24
REMARK    8  A    between atoms: C12_13  and  C15_18
REMARK    9  A    between atoms: O3_24  and  C21_25
REMARK   10  A    between atoms: O4_26  and  C22_27
REMARK                            x       y       z     vdW  Elec       q    Type
REMARK                         _______ _______ _______ _____ _____    ______ ____
ROOT
ATOM      7  C   UNL     1      45.062  19.659  19.350  0.00  0.00    -0.132 A 
ATOM      8  C   UNL     1      43.874  19.169  19.912  0.00  0.00    +0.208 A 
ATOM     11  C   UNL     1      43.852  17.941  20.555  0.00  0.00    -0.200 A 
ATOM     12  C   UNL     1      45.007  17.185  20.654  0.00  0.00    +0.250 A 
ATOM     15  C   UNL     1      46.205  17.665  20.100  0.00  0.00    -0.313 A 
ATOM     16  C   UNL     1      47.444  16.884  20.205  0.00  0.00    +0.405 C 
ATOM     17  O   UNL     1      47.531  15.925  20.943  0.00  0.00    -0.433 OA
ATOM     18  C   UNL     1      48.602  17.328  19.327  0.00  0.00    +0.036 C 
ATOM     19  C   UNL     1      48.625  18.864  19.361  0.00  0.00    +0.232 C 
ATOM     26  O   UNL     1      47.377  19.365  18.880  0.00  0.00    -0.281 OA
ATOM     27  C   UNL     1      46.235  18.903  19.435  0.00  0.00    +0.272 A 
ENDROOT
BRANCH  19  20
ATOM     20  C   UNL     1      49.741  19.370  18.485  0.00  0.00    -0.091 A 
ATOM     21  C   UNL     1      50.097  20.706  18.521  0.00  0.00    +0.042 A 
ATOM     22  C   UNL     1      51.121  21.170  17.716  0.00  0.00    +0.004 A 
ATOM     23  C   UNL     1      51.789  20.300  16.876  0.00  0.00    +0.013 A 
ATOM     24  C   UNL     1      51.433  18.964  16.840  0.00  0.00    +0.007 A 
ATOM     25  C   UNL     1      50.413  18.499  17.648  0.00  0.00    +0.022 A 
ENDBRANCH  19  20
BRANCH   7   6
ATOM      5  C   UNL     1      45.413  22.061  19.336  0.00  0.00    -0.041 C 
ATOM      6  C   UNL     1      45.074  20.967  18.667  0.00  0.00    +0.040 C 
BRANCH   5   2
ATOM      1  C   UNL     1      46.687  21.215  21.289  0.00  0.00    +0.013 C 
ATOM      2  C   UNL     1      45.475  22.035  20.842  0.00  0.00    +0.157 C 
ATOM     28  C   UNL     1      45.603  23.465  21.372  0.00  0.00    +0.058 C 
BRANCH   2   3
ATOM      3  O   UNL     1      44.282  21.441  21.357  0.00  0.00    -0.549 OA
ATOM      4  H   UNL     1      44.084  21.685  22.272  0.00  0.00    +0.367 HD
ENDBRANCH   2   3
ENDBRANCH   5   2
ENDBRANCH   7   6
BRANCH   8   9
ATOM      9  O   UNL     1      42.737  19.904  19.825  0.00  0.00    -0.295 OA
ATOM     10  C   UNL     1      41.504  19.223  20.065  0.00  0.00    +0.247 C 
ENDBRANCH   8   9
BRANCH  12  13
ATOM     13  O   UNL     1      44.982  15.984  21.283  0.00  0.00    -0.283 OA
ATOM     14  C   UNL     1      44.239  15.905  22.501  0.00  0.00    +0.245 C 
ENDBRANCH  12  13
TORSDOF 6
ENDMDL
MODEL 3
REMARK VINA RESULT:      -5.8      2.397      4.364
REMARK  Name = ZINC95486270
REMARK  10 active torsions:
REMARK  status: ('A' for Active; 'I' for Inactive)
REMARK    1  A    between atoms: C1_1  and  C2_2
REMARK    2  A    between atoms: C2_2  and  C3_3
REMARK    3  A    between atoms: C2_2  and  C4_4
REMARK    4  A    between atoms: C2_2  and  O5_28
REMARK    5  A    between atoms: C5_5  and  C6_6
REMARK    6  A    between atoms: C7_7  and  O4_26
REMARK    7  A    between atoms: C9_9  and  O3_24
REMARK    8  A    between atoms: C12_13  and  C15_18
REMARK    9  A    between atoms: O3_24  and  C21_25
REMARK   10  A    between atoms: O4_26  and  C22_27
REMARK                            x       y       z     vdW  Elec       q    Type
REMARK                         _______ _______ _______ _____ _____    ______ ____
ROOT
ATOM      7  C   UNL     1      47.755  15.130  17.031  0.00  0.00    -0.132 A 
ATOM      8  C   UNL     1      47.371  13.789  17.176  0.00  0.00    +0.208 A 
ATOM     11  C   UNL     1      48.297  12.827  17.546  0.00  0.00    -0.200 A 
ATOM     12  C   UNL     1      49.615  13.181  17.780  0.00  0.00    +0.250 A 
ATOM     15  C   UNL     1      50.012  14.521  17.643  0.00  0.00    -0.313 A 
ATOM     16  C   UNL     1      51.403  14.918  17.899  0.00  0.00    +0.405 C 
ATOM     17  O   UNL     1      52.191  14.169  18.438  0.00  0.00    -0.433 OA
ATOM     18  C   UNL     1      51.806  16.309  17.438  0.00  0.00    +0.036 C 
ATOM     19  C   UNL     1      50.636  17.247  17.770  0.00  0.00    +0.232 C 
ATOM     26  O   UNL     1      49.460  16.791  17.100  0.00  0.00    -0.281 OA
ATOM     27  C   UNL     1      49.084  15.501  17.256  0.00  0.00    +0.272 A 
ENDROOT
BRANCH  19  20
ATOM     20  C   UNL     1      50.964  18.644  17.311  0.00  0.00    -0.091 A 
ATOM     21  C   UNL     1      50.626  19.729  18.100  0.00  0.00    +0.042 A 
ATOM     22  C   UNL     1      50.927  21.011  17.678  0.00  0.00    +0.004 A 
ATOM     23  C   UNL     1      51.567  21.208  16.469  0.00  0.00    +0.013 A 
ATOM     24  C   UNL     1      51.905  20.123  15.680  0.00  0.00    +0.007 A 
ATOM     25  C   UNL     1      51.608  18.842  16.104  0.00  0.00    +0.022 A 
ENDBRANCH  19  20
BRANCH   7   6
ATOM      5  C   UNL     1      46.154  16.876  17.563  0.00  0.00    -0.041 C 
ATOM      6  C   UNL     1      46.761  16.147  16.636  0.00  0.00    +0.040 C 
BRANCH   5   2
ATOM      1  C   UNL     1      47.548  16.957  19.613  0.00  0.00    +0.013 C 
ATOM      2  C   UNL     1      46.229  16.467  19.012  0.00  0.00    +0.157 C 
ATOM     28  C   UNL     1      45.058  17.087  19.778  0.00  0.00    +0.058 C 
BRANCH   2   3
ATOM      3  O   UNL     1      46.161  15.043  19.108  0.00  0.00    -0.549 OA
ATOM      4  H   UNL     1      45.385  14.718  19.585  0.00  0.00    +0.367 HD
ENDBRANCH   2   3
ENDBRANCH   5   2
ENDBRANCH   7   6
BRANCH   8   9
ATOM      9  O   UNL     1      46.081  13.432  16.953  0.00  0.00    -0.295 OA
ATOM     10  C   UNL     1      45.791  12.033  16.928  0.00  0.00    +0.247 C 
ENDBRANCH   8   9
BRANCH  12  13
ATOM     13  O   UNL     1      50.519  12.237  18.141  0.00  0.00    -0.283 OA
ATOM     14  C   UNL     1      50.688  11.128  17.255  0.00  0.00    +0.245 C 
ENDBRANCH  12  13
TORSDOF 6
ENDMDL
MODEL 4
REMARK VINA RESULT:      -5.7      2.439      7.110
REMARK  Name = ZINC95486270
REMARK  10 active torsions:
REMARK  status: ('A' for Active; 'I' for Inactive)
REMARK    1  A    between atoms: C1_1  and  C2_2
REMARK    2  A    between atoms: C2_2  and  C3_3
REMARK    3  A    between atoms: C2_2  and  C4_4
REMARK    4  A    between atoms: C2_2  and  O5_28
REMARK    5  A    between atoms: C5_5  and  C6_6
REMARK    6  A    between atoms: C7_7  and  O4_26
REMARK    7  A    between atoms: C9_9  and  O3_24
REMARK    8  A    between atoms: C12_13  and  C15_18
REMARK    9  A    between atoms: O3_24  and  C21_25
REMARK   10  A    between atoms: O4_26  and  C22_27
REMARK                            x       y       z     vdW  Elec       q    Type
REMARK                         _______ _______ _______ _____ _____    ______ ____
ROOT
ATOM      7  C   UNL     1      46.985  19.178  18.698  0.00  0.00    -0.132 A 
ATOM      8  C   UNL     1      48.347  19.137  19.028  0.00  0.00    +0.208 A 
ATOM     11  C   UNL     1      48.860  19.970  20.010  0.00  0.00    -0.200 A 
ATOM     12  C   UNL     1      48.029  20.851  20.680  0.00  0.00    +0.250 A 
ATOM     15  C   UNL     1      46.662  20.899  20.364  0.00  0.00    -0.313 A 
ATOM     16  C   UNL     1      45.762  21.818  21.073  0.00  0.00    +0.405 C 
ATOM     17  O   UNL     1      46.107  22.397  22.082  0.00  0.00    -0.433 OA
ATOM     18  C   UNL     1      44.383  22.019  20.466  0.00  0.00    +0.036 C 
ATOM     19  C   UNL     1      43.899  20.641  19.989  0.00  0.00    +0.232 C 
ATOM     26  O   UNL     1      44.824  20.121  19.033  0.00  0.00    -0.281 OA
ATOM     27  C   UNL     1      46.135  20.068  19.361  0.00  0.00    +0.272 A 
ENDROOT
BRANCH  19  20
ATOM     20  C   UNL     1      42.541  20.777  19.350  0.00  0.00    -0.091 A 
ATOM     21  C   UNL     1      42.040  22.031  19.049  0.00  0.00    +0.042 A 
ATOM     22  C   UNL     1      40.794  22.154  18.464  0.00  0.00    +0.004 A 
ATOM     23  C   UNL     1      40.049  21.026  18.179  0.00  0.00    +0.013 A 
ATOM     24  C   UNL     1      40.550  19.772  18.480  0.00  0.00    +0.007 A 
ATOM     25  C   UNL     1      41.797  19.648  19.061  0.00  0.00    +0.022 A 
ENDBRANCH  19  20
BRANCH   7   6
ATOM      5  C   UNL     1      45.881  17.137  17.985  0.00  0.00    -0.041 C 
ATOM      6  C   UNL     1      46.450  18.287  17.650  0.00  0.00    +0.040 C 
BRANCH   5   2
ATOM      1  C   UNL     1      45.049  17.247  20.320  0.00  0.00    +0.013 C 
ATOM      2  C   UNL     1      46.057  16.586  19.377  0.00  0.00    +0.157 C 
ATOM     28  C   UNL     1      45.824  15.073  19.361  0.00  0.00    +0.058 C 
BRANCH   2   3
ATOM      3  O   UNL     1      47.384  16.858  19.832  0.00  0.00    -0.549 OA
ATOM      4  H   UNL     1      47.752  17.687  19.496  0.00  0.00    +0.367 HD
ENDBRANCH   2   3
ENDBRANCH   5   2
ENDBRANCH   7   6
BRANCH   8   9
ATOM      9  O   UNL     1      49.170  18.275  18.380  0.00  0.00    -0.295 OA
ATOM     10  C   UNL     1      50.431  18.785  17.941  0.00  0.00    +0.247 C 
ENDBRANCH   8   9
BRANCH  12  13
ATOM     13  O   UNL     1      48.534  21.666  21.640  0.00  0.00    -0.283 OA
ATOM     14  C   UNL     1      49.757  21.260  22.258  0.00  0.00    +0.245 C 
ENDBRANCH  12  13
TORSDOF 6
ENDMDL
MODEL 5
REMARK VINA RESULT:      -5.4      1.768      4.150
REMARK  Name = ZINC95486270
REMARK  10 active torsions:
REMARK  status: ('A' for Active; 'I' for Inactive)
REMARK    1  A    between atoms: C1_1  and  C2_2
REMARK    2  A    between atoms: C2_2  and  C3_3
REMARK    3  A    between atoms: C2_2  and  C4_4
REMARK    4  A    between atoms: C2_2  and  O5_28
REMARK    5  A    between atoms: C5_5  and  C6_6
REMARK    6  A    between atoms: C7_7  and  O4_26
REMARK    7  A    between atoms: C9_9  and  O3_24
REMARK    8  A    between atoms: C12_13  and  C15_18
REMARK    9  A    between atoms: O3_24  and  C21_25
REMARK   10  A    between atoms: O4_26  and  C22_27
REMARK                            x       y       z     vdW  Elec       q    Type
REMARK                         _______ _______ _______ _____ _____    ______ ____
ROOT
ATOM      7  C   UNL     1      46.461  17.073  20.562  0.00  0.00    -0.132 A 
ATOM      8  C   UNL     1      45.179  16.575  20.832  0.00  0.00    +0.208 A 
ATOM     11  C   UNL     1      44.107  17.438  20.995  0.00  0.00    -0.200 A 
ATOM     12  C   UNL     1      44.291  18.806  20.888  0.00  0.00    +0.250 A 
ATOM     15  C   UNL     1      45.569  19.319  20.613  0.00  0.00    -0.313 A 
ATOM     16  C   UNL     1      45.783  20.766  20.484  0.00  0.00    +0.405 C 
ATOM     17  O   UNL     1      44.854  21.542  20.392  0.00  0.00    -0.433 OA
ATOM     18  C   UNL     1      47.227  21.242  20.490  0.00  0.00    +0.036 C 
ATOM     19  C   UNL     1      48.031  20.240  19.648  0.00  0.00    +0.232 C 
ATOM     26  O   UNL     1      47.903  18.936  20.216  0.00  0.00    -0.281 OA
ATOM     27  C   UNL     1      46.665  18.453  20.460  0.00  0.00    +0.272 A 
ENDROOT
BRANCH  19  20
ATOM     20  C   UNL     1      49.483  20.643  19.636  0.00  0.00    -0.091 A 
ATOM     21  C   UNL     1      50.122  20.892  18.435  0.00  0.00    +0.042 A 
ATOM     22  C   UNL     1      51.454  21.261  18.426  0.00  0.00    +0.004 A 
ATOM     23  C   UNL     1      52.147  21.382  19.615  0.00  0.00    +0.013 A 
ATOM     24  C   UNL     1      51.508  21.133  20.816  0.00  0.00    +0.007 A 
ATOM     25  C   UNL     1      50.175  20.768  20.826  0.00  0.00    +0.022 A 
ENDBRANCH  19  20
BRANCH   7   6
ATOM      5  C   UNL     1      47.968  15.769  19.174  0.00  0.00    -0.041 C 
ATOM      6  C   UNL     1      47.596  16.145  20.391  0.00  0.00    +0.040 C 
BRANCH   5   2
ATOM      1  C   UNL     1      47.312  17.427  17.450  0.00  0.00    +0.013 C 
ATOM      2  C   UNL     1      47.060  16.021  17.997  0.00  0.00    +0.157 C 
ATOM     28  C   UNL     1      47.346  14.989  16.903  0.00  0.00    +0.058 C 
BRANCH   2   3
ATOM      3  O   UNL     1      45.698  15.909  18.414  0.00  0.00    -0.549 OA
ATOM      4  H   UNL     1      45.293  15.055  18.209  0.00  0.00    +0.367 HD
ENDBRANCH   2   3
ENDBRANCH   5   2
ENDBRANCH   7   6
BRANCH   8   9
ATOM      9  O   UNL     1      44.986  15.236  20.934  0.00  0.00    -0.295 OA
ATOM     10  C   UNL     1      44.830  14.701  22.250  0.00  0.00    +0.247 C 
ENDBRANCH   8   9
BRANCH  12  13
ATOM     13  O   UNL     1      43.241  19.649  21.049  0.00  0.00    -0.283 OA
ATOM     14  C   UNL     1      41.980  19.221  20.528  0.00  0.00    +0.245 C 
ENDBRANCH  12  13
TORSDOF 6
ENDMDL
MODEL 6
REMARK VINA RESULT:      -5.4      2.788      5.745
REMARK  Name = ZINC95486270
REMARK  10 active torsions:
REMARK  status: ('A' for Active; 'I' for Inactive)
REMARK    1  A    between atoms: C1_1  and  C2_2
REMARK    2  A    between atoms: C2_2  and  C3_3
REMARK    3  A    between atoms: C2_2  and  C4_4
REMARK    4  A    between atoms: C2_2  and  O5_28
REMARK    5  A    between atoms: C5_5  and  C6_6
REMARK    6  A    between atoms: C7_7  and  O4_26
REMARK    7  A    between atoms: C9_9  and  O3_24
REMARK    8  A    between atoms: C12_13  and  C15_18
REMARK    9  A    between atoms: O3_24  and  C21_25
REMARK   10  A    between atoms: O4_26  and  C22_27
REMARK                            x       y       z     vdW  Elec       q    Type
REMARK                         _______ _______ _______ _____ _____    ______ ____
ROOT
ATOM      7  C   UNL     1      44.897  20.072  19.284  0.00  0.00    -0.132 A 
ATOM      8  C   UNL     1      45.100  21.390  19.717  0.00  0.00    +0.208 A 
ATOM     11  C   UNL     1      46.278  21.750  20.352  0.00  0.00    -0.200 A 
ATOM     12  C   UNL     1      47.273  20.810  20.560  0.00  0.00    +0.250 A 
ATOM     15  C   UNL     1      47.086  19.488  20.127  0.00  0.00    -0.313 A 
ATOM     16  C   UNL     1      48.134  18.480  20.328  0.00  0.00    +0.405 C 
ATOM     17  O   UNL     1      49.258  18.787  20.667  0.00  0.00    -0.433 OA
ATOM     18  C   UNL     1      47.732  17.030  20.108  0.00  0.00    +0.036 C 
ATOM     19  C   UNL     1      46.827  17.001  18.867  0.00  0.00    +0.232 C 
ATOM     26  O   UNL     1      45.690  17.835  19.092  0.00  0.00    -0.281 OA
ATOM     27  C   UNL     1      45.889  19.110  19.495  0.00  0.00    +0.272 A 
ENDROOT
BRANCH  19  20
ATOM     20  C   UNL     1      46.371  15.588  18.609  0.00  0.00    -0.091 A 
ATOM     21  C   UNL     1      45.575  14.938  19.535  0.00  0.00    +0.042 A 
ATOM     22  C   UNL     1      45.157  13.642  19.297  0.00  0.00    +0.004 A 
ATOM     23  C   UNL     1      45.535  12.996  18.136  0.00  0.00    +0.013 A 
ATOM     24  C   UNL     1      46.331  13.646  17.210  0.00  0.00    +0.007 A 
ATOM     25  C   UNL     1      46.744  14.943  17.445  0.00  0.00    +0.022 A 
ENDBRANCH  19  20
BRANCH   7   6
ATOM      5  C   UNL     1      42.553  19.444  19.329  0.00  0.00    -0.041 C 
ATOM      6  C   UNL     1      43.638  19.699  18.610  0.00  0.00    +0.040 C 
BRANCH   5   2
ATOM      1  C   UNL     1      41.272  19.022  21.410  0.00  0.00    +0.013 C 
ATOM      2  C   UNL     1      42.667  19.219  20.815  0.00  0.00    +0.157 C 
ATOM     28  C   UNL     1      43.515  17.973  21.079  0.00  0.00    +0.058 C 
BRANCH   2   3
ATOM      3  O   UNL     1      43.288  20.355  21.420  0.00  0.00    -0.549 OA
ATOM      4  H   UNL     1      43.434  20.262  22.372  0.00  0.00    +0.367 HD
ENDBRANCH   2   3
ENDBRANCH   5   2
ENDBRANCH   7   6
BRANCH   8   9
ATOM      9  O   UNL     1      44.133  22.320  19.514  0.00  0.00    -0.295 OA
ATOM     10  C   UNL     1      44.546  23.688  19.481  0.00  0.00    +0.247 C 
ENDBRANCH   8   9
BRANCH  12  13
ATOM     13  O   UNL     1      48.425  21.166  21.182  0.00  0.00    -0.283 OA
ATOM     14  C   UNL     1      48.311  21.696  22.505  0.00  0.00    +0.245 C 
ENDBRANCH  12  13
TORSDOF 6
ENDMDL
MODEL 7
REMARK VINA RESULT:      -5.3      1.854      5.380
REMARK  Name = ZINC95486270
REMARK  10 active torsions:
REMARK  status: ('A' for Active; 'I' for Inactive)
REMARK    1  A    between atoms: C1_1  and  C2_2
REMARK    2  A    between atoms: C2_2  and  C3_3
REMARK    3  A    between atoms: C2_2  and  C4_4
REMARK    4  A    between atoms: C2_2  and  O5_28
REMARK    5  A    between atoms: C5_5  and  C6_6
REMARK    6  A    between atoms: C7_7  and  O4_26
REMARK    7  A    between atoms: C9_9  and  O3_24
REMARK    8  A    between atoms: C12_13  and  C15_18
REMARK    9  A    between atoms: O3_24  and  C21_25
REMARK   10  A    between atoms: O4_26  and  C22_27
REMARK                            x       y       z     vdW  Elec       q    Type
REMARK                         _______ _______ _______ _____ _____    ______ ____
ROOT
ATOM      7  C   UNL     1      47.205  19.300  20.106  0.00  0.00    -0.132 A 
ATOM      8  C   UNL     1      47.884  20.513  20.294  0.00  0.00    +0.208 A 
ATOM     11  C   UNL     1      49.042  20.790  19.584  0.00  0.00    -0.200 A 
ATOM     12  C   UNL     1      49.539  19.871  18.675  0.00  0.00    +0.250 A 
ATOM     15  C   UNL     1      48.866  18.655  18.473  0.00  0.00    -0.313 A 
ATOM     16  C   UNL     1      49.371  17.674  17.504  0.00  0.00    +0.405 C 
ATOM     17  O   UNL     1      50.237  17.956  16.703  0.00  0.00    -0.433 OA
ATOM     18  C   UNL     1      48.763  16.282  17.571  0.00  0.00    +0.036 C 
ATOM     19  C   UNL     1      47.257  16.462  17.811  0.00  0.00    +0.232 C 
ATOM     26  O   UNL     1      47.055  17.183  19.027  0.00  0.00    -0.281 OA
ATOM     27  C   UNL     1      47.699  18.360  19.198  0.00  0.00    +0.272 A 
ENDROOT
BRANCH  19  20
ATOM     20  C   UNL     1      46.598  15.111  17.913  0.00  0.00    -0.091 A 
ATOM     21  C   UNL     1      46.763  14.182  16.902  0.00  0.00    +0.042 A 
ATOM     22  C   UNL     1      46.157  12.943  16.997  0.00  0.00    +0.004 A 
ATOM     23  C   UNL     1      45.388  12.632  18.102  0.00  0.00    +0.013 A 
ATOM     24  C   UNL     1      45.223  13.561  19.113  0.00  0.00    +0.007 A 
ATOM     25  C   UNL     1      45.832  14.798  19.021  0.00  0.00    +0.022 A 
ENDBRANCH  19  20
BRANCH   7   6
ATOM      5  C   UNL     1      44.789  19.145  20.286  0.00  0.00    -0.041 C 
ATOM      6  C   UNL     1      45.974  19.015  20.868  0.00  0.00    +0.040 C 
BRANCH   5   2
ATOM      1  C   UNL     1      43.192  20.026  18.605  0.00  0.00    +0.013 C 
ATOM      2  C   UNL     1      44.670  19.877  18.973  0.00  0.00    +0.157 C 
ATOM     28  C   UNL     1      45.305  21.263  19.103  0.00  0.00    +0.058 C 
BRANCH   2   3
ATOM      3  O   UNL     1      45.343  19.137  17.954  0.00  0.00    -0.549 OA
ATOM      4  H   UNL     1      44.978  19.266  17.067  0.00  0.00    +0.367 HD
ENDBRANCH   2   3
ENDBRANCH   5   2
ENDBRANCH   7   6
BRANCH   8   9
ATOM      9  O   UNL     1      47.404  21.422  21.179  0.00  0.00    -0.295 OA
ATOM     10  C   UNL     1      48.247  21.763  22.282  0.00  0.00    +0.247 C 
ENDBRANCH   8   9
BRANCH  12  13
ATOM     13  O   UNL     1      50.672  20.145  17.982  0.00  0.00    -0.283 OA
ATOM     14  C   UNL     1      51.540  21.142  18.526  0.00  0.00    +0.245 C 
ENDBRANCH  12  13
TORSDOF 6
ENDMDL
MODEL 8
REMARK VINA RESULT:      -5.3      2.214      6.103
REMARK  Name = ZINC95486270
REMARK  10 active torsions:
REMARK  status: ('A' for Active; 'I' for Inactive)
REMARK    1  A    between atoms: C1_1  and  C2_2
REMARK    2  A    between atoms: C2_2  and  C3_3
REMARK    3  A    between atoms: C2_2  and  C4_4
REMARK    4  A    between atoms: C2_2  and  O5_28
REMARK    5  A    between atoms: C5_5  and  C6_6
REMARK    6  A    between atoms: C7_7  and  O4_26
REMARK    7  A    between atoms: C9_9  and  O3_24
REMARK    8  A    between atoms: C12_13  and  C15_18
REMARK    9  A    between atoms: O3_24  and  C21_25
REMARK   10  A    between atoms: O4_26  and  C22_27
REMARK                            x       y       z     vdW  Elec       q    Type
REMARK                         _______ _______ _______ _____ _____    ______ ____
ROOT
ATOM      7  C   UNL     1      50.025  19.719  18.089  0.00  0.00    -0.132 A 
ATOM      8  C   UNL     1      50.826  18.774  17.432  0.00  0.00    +0.208 A 
ATOM     11  C   UNL     1      50.328  17.516  17.131  0.00  0.00    -0.200 A 
ATOM     12  C   UNL     1      49.029  17.181  17.471  0.00  0.00    +0.250 A 
ATOM     15  C   UNL     1      48.214  18.119  18.124  0.00  0.00    -0.313 A 
ATOM     16  C   UNL     1      46.830  17.787  18.483  0.00  0.00    +0.405 C 
ATOM     17  O   UNL     1      46.278  16.798  18.047  0.00  0.00    -0.433 OA
ATOM     18  C   UNL     1      46.131  18.736  19.443  0.00  0.00    +0.036 C 
ATOM     19  C   UNL     1      46.525  20.162  19.028  0.00  0.00    +0.232 C 
ATOM     26  O   UNL     1      47.945  20.297  19.094  0.00  0.00    -0.281 OA
ATOM     27  C   UNL     1      48.714  19.392  18.446  0.00  0.00    +0.272 A 
ENDROOT
BRANCH  19  20
ATOM     20  C   UNL     1      45.883  21.154  19.962  0.00  0.00    -0.091 A 
ATOM     21  C   UNL     1      44.921  22.028  19.487  0.00  0.00    +0.042 A 
ATOM     22  C   UNL     1      44.332  22.939  20.345  0.00  0.00    +0.004 A 
ATOM     23  C   UNL     1      44.704  22.976  21.675  0.00  0.00    +0.013 A 
ATOM     24  C   UNL     1      45.665  22.102  22.150  0.00  0.00    +0.007 A 
ATOM     25  C   UNL     1      46.250  21.189  21.294  0.00  0.00    +0.022 A 
ENDBRANCH  19  20
BRANCH   7   6
ATOM      5  C   UNL     1      51.360  21.217  19.457  0.00  0.00    -0.041 C 
ATOM      6  C   UNL     1      50.566  21.056  18.406  0.00  0.00    +0.040 C 
BRANCH   5   2
ATOM      1  C   UNL     1      52.522  20.515  21.532  0.00  0.00    +0.013 C 
ATOM      2  C   UNL     1      51.458  20.134  20.501  0.00  0.00    +0.157 C 
ATOM     28  C   UNL     1      50.105  19.976  21.199  0.00  0.00    +0.058 C 
BRANCH   2   3
ATOM      3  O   UNL     1      51.819  18.902  19.876  0.00  0.00    -0.549 OA
ATOM      4  H   UNL     1      52.055  18.200  20.498  0.00  0.00    +0.367 HD
ENDBRANCH   2   3
ENDBRANCH   5   2
ENDBRANCH   7   6
BRANCH   8   9
ATOM      9  O   UNL     1      52.099  19.093  17.090  0.00  0.00    -0.295 OA
ATOM     10  C   UNL     1      52.305  19.627  15.780  0.00  0.00    +0.247 C 
ENDBRANCH   8   9
BRANCH  12  13
ATOM     13  O   UNL     1      48.545  15.949  17.176  0.00  0.00    -0.283 OA
ATOM     14  C   UNL     1      49.417  14.839  17.399  0.00  0.00    +0.245 C 
ENDBRANCH  12  13
TORSDOF 6
ENDMDL
MODEL 9
REMARK VINA RESULT:      -5.3      1.968      5.605
REMARK  Name = ZINC95486270
REMARK  10 active torsions:
REMARK  status: ('A' for Active; 'I' for Inactive)
REMARK    1  A    between atoms: C1_1  and  C2_2
REMARK    2  A    between atoms: C2_2  and  C3_3
REMARK    3  A    between atoms: C2_2  and  C4_4
REMARK    4  A    between atoms: C2_2  and  O5_28
REMARK    5  A    between atoms: C5_5  and  C6_6
REMARK    6  A    between atoms: C7_7  and  O4_26
REMARK    7  A    between atoms: C9_9  and  O3_24
REMARK    8  A    between atoms: C12_13  and  C15_18
REMARK    9  A    between atoms: O3_24  and  C21_25
REMARK   10  A    between atoms: O4_26  and  C22_27
REMARK                            x       y       z     vdW  Elec       q    Type
REMARK                         _______ _______ _______ _____ _____    ______ ____
ROOT
ATOM      7  C   UNL     1      47.667  17.001  17.816  0.00  0.00    -0.132 A 
ATOM      8  C   UNL     1      48.501  16.006  17.286  0.00  0.00    +0.208 A 
ATOM     11  C   UNL     1      49.877  16.176  17.270  0.00  0.00    -0.200 A 
ATOM     12  C   UNL     1      50.443  17.331  17.784  0.00  0.00    +0.250 A 
ATOM     15  C   UNL     1      49.619  18.332  18.322  0.00  0.00    -0.313 A 
ATOM     16  C   UNL     1      50.201  19.558  18.883  0.00  0.00    +0.405 C 
ATOM     17  O   UNL     1      51.391  19.658  19.099  0.00  0.00    -0.433 OA
ATOM     18  C   UNL     1      49.237  20.701  19.160  0.00  0.00    +0.036 C 
ATOM     19  C   UNL     1      47.966  20.079  19.756  0.00  0.00    +0.232 C 
ATOM     26  O   UNL     1      47.419  19.142  18.827  0.00  0.00    -0.281 OA
ATOM     27  C   UNL     1      48.223  18.175  18.331  0.00  0.00    +0.272 A 
ENDROOT
BRANCH  19  20
ATOM     20  C   UNL     1      46.956  21.163  20.030  0.00  0.00    -0.091 A 
ATOM     21  C   UNL     1      47.101  21.980  21.136  0.00  0.00    +0.042 A 
ATOM     22  C   UNL     1      46.173  22.974  21.387  0.00  0.00    +0.004 A 
ATOM     23  C   UNL     1      45.101  23.151  20.533  0.00  0.00    +0.013 A 
ATOM     24  C   UNL     1      44.956  22.333  19.427  0.00  0.00    +0.007 A 
ATOM     25  C   UNL     1      45.886  21.343  19.174  0.00  0.00    +0.022 A 
ENDBRANCH  19  20
BRANCH   7   6
ATOM      5  C   UNL     1      45.603  16.345  18.915  0.00  0.00    -0.041 C 
ATOM      6  C   UNL     1      46.203  16.810  17.827  0.00  0.00    +0.040 C 
BRANCH   5   2
ATOM      1  C   UNL     1      47.009  16.811  20.904  0.00  0.00    +0.013 C 
ATOM      2  C   UNL     1      46.419  15.715  20.015  0.00  0.00    +0.157 C 
ATOM     28  C   UNL     1      45.523  14.803  20.856  0.00  0.00    +0.058 C 
BRANCH   2   3
ATOM      3  O   UNL     1      47.477  14.945  19.441  0.00  0.00    -0.549 OA
ATOM      4  H   UNL     1      47.175  14.211  18.888  0.00  0.00    +0.367 HD
ENDBRANCH   2   3
ENDBRANCH   5   2
ENDBRANCH   7   6
BRANCH   8   9
ATOM      9  O   UNL     1      47.958  14.869  16.784  0.00  0.00    -0.295 OA
ATOM     10  C   UNL     1      48.864  13.860  16.335  0.00  0.00    +0.247 C 
ENDBRANCH   8   9
BRANCH  12  13
ATOM     13  O   UNL     1      51.789  17.494  17.766  0.00  0.00    -0.283 OA
ATOM     14  C   UNL     1      52.575  16.466  18.372  0.00  0.00    +0.245 C 
ENDBRANCH  12  13
TORSDOF 6
ENDMDL
