MODEL 1
REMARK VINA RESULT:      -6.7      0.000      0.000
REMARK  Name = ZINC38362222
REMARK  17 active torsions:
REMARK  status: ('A' for Active; 'I' for Inactive)
REMARK    1  A    between atoms: C1_1  and  C2_2
REMARK    2  A    between atoms: C9_10  and  O4_21
REMARK    3  A    between atoms: C10_11  and  C15_20
REMARK    4  A    between atoms: C12_13  and  O3_19
REMARK    5  A    between atoms: C13_15  and  O2_18
REMARK    6  A    between atoms: C16_22  and  O8_39
REMARK    7  A    between atoms: C19_25  and  C20_27
REMARK    8  A    between atoms: C20_27  and  C21_28
REMARK    9  A    between atoms: C20_27  and  C22_29
REMARK   10  A    between atoms: C20_27  and  O7_38
REMARK   11  A    between atoms: C22_29  and  C23_31
REMARK   12  A    between atoms: C22_29  and  O6_37
REMARK   13  A    between atoms: C23_31  and  C24_32
REMARK   14  A    between atoms: C24_32  and  C25_33
REMARK   15  A    between atoms: C25_33  and  C26_34
REMARK   16  A    between atoms: C25_33  and  C27_35
REMARK   17  A    between atoms: C25_33  and  O5_36
REMARK                            x       y       z     vdW  Elec       q    Type
REMARK                         _______ _______ _______ _____ _____    ______ ____
ROOT
ATOM      1  C   UNL     1      48.133  17.728  20.232  0.00  0.00    +0.050 C 
ATOM      2  C   UNL     1      47.765  17.551  18.758  0.00  0.00    -0.039 C 
ATOM      3  C   UNL     1      47.475  18.904  18.172  0.00  0.00    +0.092 C 
ATOM      4  C   UNL     1      46.203  19.464  18.758  0.00  0.00    +0.041 C 
ATOM      5  C   UNL     1      45.334  18.744  19.456  0.00  0.00    -0.117 C 
ATOM      6  C   UNL     1      45.505  17.286  19.605  0.00  0.00    +0.027 C 
ATOM      7  C   UNL     1      44.795  16.604  20.521  0.00  0.00    -0.108 C 
ATOM      8  C   UNL     1      43.931  17.278  21.405  0.00  0.00    +0.366 C 
ATOM      9  C   UNL     1      43.906  18.778  21.463  0.00  0.00    +0.115 C 
ATOM     12  C   UNL     1      42.610  19.277  22.088  0.00  0.00    +0.051 C 
ATOM     13  C   UNL     1      41.422  18.915  21.195  0.00  0.00    +0.140 C 
ATOM     16  C   UNL     1      41.615  19.562  19.821  0.00  0.00    +0.137 C 
ATOM     19  C   UNL     1      42.896  19.022  19.185  0.00  0.00    +0.060 C 
ATOM     20  O   UNL     1      43.196  16.637  22.130  0.00  0.00    -0.449 OA
ATOM     21  C   UNL     1      44.099  19.369  20.066  0.00  0.00    +0.011 C 
ATOM     22  C   UNL     1      44.274  20.886  20.159  0.00  0.00    +0.071 C 
ATOM     23  C   UNL     1      48.840  16.705  18.090  0.00  0.00    +0.001 C 
ATOM     38  C   UNL     1      48.420  15.236  18.349  0.00  0.00    +0.025 C 
ATOM     39  C   UNL     1      47.057  15.295  19.093  0.00  0.00    +0.016 C 
ATOM     40  C   UNL     1      46.496  16.660  18.676  0.00  0.00    +0.154 C 
ENDROOT
BRANCH   9  10
ATOM     10  O   UNL     1      44.997  19.215  22.278  0.00  0.00    -0.529 OA
ATOM     11  H   UNL     1      45.857  19.173  21.837  0.00  0.00    +0.380 HD
ENDBRANCH   9  10
BRANCH  13  14
ATOM     14  O   UNL     1      40.214  19.396  21.785  0.00  0.00    -0.560 OA
ATOM     15  H   UNL     1      40.349  20.067  22.467  0.00  0.00    +0.380 HD
ENDBRANCH  13  14
BRANCH  16  17
ATOM     17  O   UNL     1      41.716  20.979  19.969  0.00  0.00    -0.545 OA
ATOM     18  H   UNL     1      42.077  21.432  19.195  0.00  0.00    +0.377 HD
ENDBRANCH  16  17
BRANCH  23  24
ATOM     24  C   UNL     1      50.205  16.987  18.722  0.00  0.00    +0.113 C 
ATOM     37  C   UNL     1      50.100  18.204  19.644  0.00  0.00    +0.058 C 
BRANCH  24  25
ATOM     25  O   UNL     1      50.621  15.849  19.480  0.00  0.00    -0.541 OA
ATOM     26  H   UNL     1      49.965  15.140  19.518  0.00  0.00    +0.370 HD
ENDBRANCH  24  25
BRANCH  24  27
ATOM     27  C   UNL     1      51.228  17.268  17.620  0.00  0.00    +0.180 C 
BRANCH  27  28
ATOM     28  O   UNL     1      51.422  16.089  16.838  0.00  0.00    -0.553 OA
ATOM     29  H   UNL     1      52.117  15.505  17.172  0.00  0.00    +0.372 HD
ENDBRANCH  27  28
BRANCH  27  30
ATOM     30  C   UNL     1      50.715  18.396  16.724  0.00  0.00    +0.010 C 
BRANCH  30  31
ATOM     31  C   UNL     1      51.902  19.189  16.171  0.00  0.00    +0.044 C 
BRANCH  31  32
ATOM     32  C   UNL     1      52.001  20.531  16.897  0.00  0.00    +0.125 C 
ATOM     35  C   UNL     1      52.962  20.402  18.082  0.00  0.00    +0.007 C 
ATOM     36  C   UNL     1      50.617  20.940  17.407  0.00  0.00    +0.006 C 
BRANCH  32  33
ATOM     33  O   UNL     1      52.489  21.526  15.995  0.00  0.00    -0.560 OA
ATOM     34  H   UNL     1      52.555  21.226  15.077  0.00  0.00    +0.375 HD
ENDBRANCH  32  33
ENDBRANCH  31  32
ENDBRANCH  30  31
ENDBRANCH  27  30
ENDBRANCH  24  27
ENDBRANCH  23  24
BRANCH  40  41
ATOM     41  O   UNL     1      45.976  16.627  17.347  0.00  0.00    -0.533 OA
ATOM     42  H   UNL     1      45.333  17.324  17.157  0.00  0.00    +0.377 HD
ENDBRANCH  40  41
TORSDOF 12
ENDMDL
MODEL 2
REMARK VINA RESULT:      -6.7      2.257      8.132
REMARK  Name = ZINC38362222
REMARK  17 active torsions:
REMARK  status: ('A' for Active; 'I' for Inactive)
REMARK    1  A    between atoms: C1_1  and  C2_2
REMARK    2  A    between atoms: C9_10  and  O4_21
REMARK    3  A    between atoms: C10_11  and  C15_20
REMARK    4  A    between atoms: C12_13  and  O3_19
REMARK    5  A    between atoms: C13_15  and  O2_18
REMARK    6  A    between atoms: C16_22  and  O8_39
REMARK    7  A    between atoms: C19_25  and  C20_27
REMARK    8  A    between atoms: C20_27  and  C21_28
REMARK    9  A    between atoms: C20_27  and  C22_29
REMARK   10  A    between atoms: C20_27  and  O7_38
REMARK   11  A    between atoms: C22_29  and  C23_31
REMARK   12  A    between atoms: C22_29  and  O6_37
REMARK   13  A    between atoms: C23_31  and  C24_32
REMARK   14  A    between atoms: C24_32  and  C25_33
REMARK   15  A    between atoms: C25_33  and  C26_34
REMARK   16  A    between atoms: C25_33  and  C27_35
REMARK   17  A    between atoms: C25_33  and  O5_36
REMARK                            x       y       z     vdW  Elec       q    Type
REMARK                         _______ _______ _______ _____ _____    ______ ____
ROOT
ATOM      1  C   UNL     1      46.364  20.054  18.609  0.00  0.00    +0.050 C 
ATOM      2  C   UNL     1      47.132  20.434  19.875  0.00  0.00    -0.039 C 
ATOM      3  C   UNL     1      48.458  21.017  19.472  0.00  0.00    +0.092 C 
ATOM      4  C   UNL     1      49.335  19.949  18.869  0.00  0.00    +0.041 C 
ATOM      5  C   UNL     1      49.080  18.650  18.955  0.00  0.00    -0.117 C 
ATOM      6  C   UNL     1      47.954  18.152  19.768  0.00  0.00    +0.027 C 
ATOM      7  C   UNL     1      47.529  16.882  19.643  0.00  0.00    -0.108 C 
ATOM      8  C   UNL     1      48.100  16.027  18.681  0.00  0.00    +0.366 C 
ATOM      9  C   UNL     1      49.071  16.552  17.664  0.00  0.00    +0.115 C 
ATOM     12  C   UNL     1      49.905  15.422  17.075  0.00  0.00    +0.051 C 
ATOM     13  C   UNL     1      50.791  14.805  18.158  0.00  0.00    +0.140 C 
ATOM     16  C   UNL     1      51.714  15.886  18.726  0.00  0.00    +0.137 C 
ATOM     19  C   UNL     1      50.867  16.994  19.352  0.00  0.00    +0.060 C 
ATOM     20  O   UNL     1      47.802  14.849  18.675  0.00  0.00    -0.449 OA
ATOM     21  C   UNL     1      49.967  17.624  18.286  0.00  0.00    +0.011 C 
ATOM     22  C   UNL     1      50.812  18.293  17.200  0.00  0.00    +0.071 C 
ATOM     23  C   UNL     1      46.225  21.280  20.756  0.00  0.00    +0.001 C 
ATOM     38  C   UNL     1      45.402  20.262  21.587  0.00  0.00    +0.025 C 
ATOM     39  C   UNL     1      45.937  18.854  21.207  0.00  0.00    +0.016 C 
ATOM     40  C   UNL     1      47.358  19.147  20.713  0.00  0.00    +0.154 C 
ENDROOT
BRANCH   9  10
ATOM     10  O   UNL     1      48.327  17.162  16.606  0.00  0.00    -0.529 OA
ATOM     11  H   UNL     1      48.184  18.111  16.723  0.00  0.00    +0.380 HD
ENDBRANCH   9  10
BRANCH  13  14
ATOM     14  O   UNL     1      51.577  13.753  17.593  0.00  0.00    -0.560 OA
ATOM     15  H   UNL     1      51.712  13.832  16.640  0.00  0.00    +0.380 HD
ENDBRANCH  13  14
BRANCH  16  17
ATOM     17  O   UNL     1      52.514  16.432  17.676  0.00  0.00    -0.545 OA
ATOM     18  H   UNL     1      53.013  15.772  17.176  0.00  0.00    +0.377 HD
ENDBRANCH  16  17
BRANCH  23  24
ATOM     24  C   UNL     1      45.295  22.136  19.892  0.00  0.00    +0.113 C 
ATOM     37  C   UNL     1      45.645  23.614  20.076  0.00  0.00    +0.058 C 
BRANCH  24  25
ATOM     25  O   UNL     1      45.456  21.775  18.519  0.00  0.00    -0.541 OA
ATOM     26  H   UNL     1      46.336  21.959  18.164  0.00  0.00    +0.370 HD
ENDBRANCH  24  25
BRANCH  24  27
ATOM     27  C   UNL     1      43.844  21.899  20.316  0.00  0.00    +0.180 C 
BRANCH  27  28
ATOM     28  O   UNL     1      43.192  23.156  20.502  0.00  0.00    -0.553 OA
ATOM     29  H   UNL     1      42.230  23.118  20.409  0.00  0.00    +0.372 HD
ENDBRANCH  27  28
BRANCH  27  30
ATOM     30  C   UNL     1      43.119  21.104  19.229  0.00  0.00    +0.010 C 
BRANCH  30  31
ATOM     31  C   UNL     1      41.811  21.810  18.866  0.00  0.00    +0.044 C 
BRANCH  31  32
ATOM     32  C   UNL     1      40.648  20.825  18.991  0.00  0.00    +0.125 C 
ATOM     35  C   UNL     1      40.835  19.684  17.987  0.00  0.00    +0.007 C 
ATOM     36  C   UNL     1      39.332  21.549  18.698  0.00  0.00    +0.006 C 
BRANCH  32  33
ATOM     33  O   UNL     1      40.614  20.293  20.316  0.00  0.00    -0.560 OA
ATOM     34  H   UNL     1      39.741  20.331  20.733  0.00  0.00    +0.375 HD
ENDBRANCH  32  33
ENDBRANCH  31  32
ENDBRANCH  30  31
ENDBRANCH  27  30
ENDBRANCH  24  27
ENDBRANCH  23  24
BRANCH  40  41
ATOM     41  O   UNL     1      48.249  19.391  21.802  0.00  0.00    -0.533 OA
ATOM     42  H   UNL     1      48.976  18.757  21.866  0.00  0.00    +0.377 HD
ENDBRANCH  40  41
TORSDOF 12
ENDMDL
MODEL 3
REMARK VINA RESULT:      -6.7      3.043      4.985
REMARK  Name = ZINC38362222
REMARK  17 active torsions:
REMARK  status: ('A' for Active; 'I' for Inactive)
REMARK    1  A    between atoms: C1_1  and  C2_2
REMARK    2  A    between atoms: C9_10  and  O4_21
REMARK    3  A    between atoms: C10_11  and  C15_20
REMARK    4  A    between atoms: C12_13  and  O3_19
REMARK    5  A    between atoms: C13_15  and  O2_18
REMARK    6  A    between atoms: C16_22  and  O8_39
REMARK    7  A    between atoms: C19_25  and  C20_27
REMARK    8  A    between atoms: C20_27  and  C21_28
REMARK    9  A    between atoms: C20_27  and  C22_29
REMARK   10  A    between atoms: C20_27  and  O7_38
REMARK   11  A    between atoms: C22_29  and  C23_31
REMARK   12  A    between atoms: C22_29  and  O6_37
REMARK   13  A    between atoms: C23_31  and  C24_32
REMARK   14  A    between atoms: C24_32  and  C25_33
REMARK   15  A    between atoms: C25_33  and  C26_34
REMARK   16  A    between atoms: C25_33  and  C27_35
REMARK   17  A    between atoms: C25_33  and  O5_36
REMARK                            x       y       z     vdW  Elec       q    Type
REMARK                         _______ _______ _______ _____ _____    ______ ____
ROOT
ATOM      1  C   UNL     1      46.261  16.159  17.192  0.00  0.00    +0.050 C 
ATOM      2  C   UNL     1      46.973  15.674  18.456  0.00  0.00    -0.039 C 
ATOM      3  C   UNL     1      45.933  15.258  19.459  0.00  0.00    +0.092 C 
ATOM      4  C   UNL     1      45.176  16.464  19.956  0.00  0.00    +0.041 C 
ATOM      5  C   UNL     1      45.569  17.715  19.755  0.00  0.00    -0.117 C 
ATOM      6  C   UNL     1      46.867  18.008  19.117  0.00  0.00    +0.027 C 
ATOM      7  C   UNL     1      47.146  19.245  18.669  0.00  0.00    -0.108 C 
ATOM      8  C   UNL     1      46.178  20.265  18.731  0.00  0.00    +0.366 C 
ATOM      9  C   UNL     1      44.765  19.961  19.139  0.00  0.00    +0.115 C 
ATOM     12  C   UNL     1      44.049  21.223  19.603  0.00  0.00    +0.051 C 
ATOM     13  C   UNL     1      44.703  21.758  20.879  0.00  0.00    +0.140 C 
ATOM     16  C   UNL     1      44.620  20.687  21.970  0.00  0.00    +0.137 C 
ATOM     19  C   UNL     1      45.378  19.441  21.510  0.00  0.00    +0.060 C 
ATOM     20  O   UNL     1      46.489  21.406  18.452  0.00  0.00    -0.449 OA
ATOM     21  C   UNL     1      44.744  18.890  20.230  0.00  0.00    +0.011 C 
ATOM     22  C   UNL     1      43.305  18.443  20.496  0.00  0.00    +0.071 C 
ATOM     23  C   UNL     1      48.022  14.648  18.057  0.00  0.00    +0.001 C 
ATOM     38  C   UNL     1      49.281  15.475  17.692  0.00  0.00    +0.025 C 
ATOM     39  C   UNL     1      48.928  16.960  17.981  0.00  0.00    +0.016 C 
ATOM     40  C   UNL     1      47.810  16.851  19.025  0.00  0.00    +0.154 C 
ENDROOT
BRANCH   9  10
ATOM     10  O   UNL     1      44.071  19.442  18.002  0.00  0.00    -0.529 OA
ATOM     11  H   UNL     1      43.203  19.068  18.209  0.00  0.00    +0.380 HD
ENDBRANCH   9  10
BRANCH  13  14
ATOM     14  O   UNL     1      44.018  22.934  21.312  0.00  0.00    -0.560 OA
ATOM     15  H   UNL     1      43.905  23.600  20.621  0.00  0.00    +0.380 HD
ENDBRANCH  13  14
BRANCH  16  17
ATOM     17  O   UNL     1      43.252  20.353  22.210  0.00  0.00    -0.545 OA
ATOM     18  H   UNL     1      42.629  20.792  21.616  0.00  0.00    +0.377 HD
ENDBRANCH  16  17
BRANCH  23  24
ATOM     24  C   UNL     1      47.545  13.845  16.845  0.00  0.00    +0.113 C 
ATOM     37  C   UNL     1      46.254  13.103  17.200  0.00  0.00    +0.058 C 
BRANCH  24  25
ATOM     25  O   UNL     1      47.298  14.733  15.753  0.00  0.00    -0.541 OA
ATOM     26  H   UNL     1      48.028  14.794  15.121  0.00  0.00    +0.370 HD
ENDBRANCH  24  25
BRANCH  24  27
ATOM     27  C   UNL     1      48.621  12.833  16.446  0.00  0.00    +0.180 C 
BRANCH  27  28
ATOM     28  O   UNL     1      48.139  11.509  16.680  0.00  0.00    -0.553 OA
ATOM     29  H   UNL     1      47.175  11.438  16.694  0.00  0.00    +0.372 HD
ENDBRANCH  27  28
BRANCH  27  30
ATOM     30  C   UNL     1      48.954  13.001  14.963  0.00  0.00    +0.010 C 
BRANCH  30  31
ATOM     31  C   UNL     1      50.459  13.222  14.799  0.00  0.00    +0.044 C 
BRANCH  31  32
ATOM     32  C   UNL     1      50.878  12.848  13.377  0.00  0.00    +0.125 C 
ATOM     35  C   UNL     1      49.732  13.153  12.410  0.00  0.00    +0.007 C 
ATOM     36  C   UNL     1      51.210  11.355  13.318  0.00  0.00    +0.006 C 
BRANCH  32  33
ATOM     33  O   UNL     1      52.030  13.607  13.004  0.00  0.00    -0.560 OA
ATOM     34  H   UNL     1      52.367  13.402  12.121  0.00  0.00    +0.375 HD
ENDBRANCH  32  33
ENDBRANCH  31  32
ENDBRANCH  30  31
ENDBRANCH  27  30
ENDBRANCH  24  27
ENDBRANCH  23  24
BRANCH  40  41
ATOM     41  O   UNL     1      48.332  16.533  20.316  0.00  0.00    -0.533 OA
ATOM     42  H   UNL     1      49.028  17.133  20.619  0.00  0.00    +0.377 HD
ENDBRANCH  40  41
TORSDOF 12
ENDMDL
MODEL 4
REMARK VINA RESULT:      -6.4      2.890      7.894
REMARK  Name = ZINC38362222
REMARK  17 active torsions:
REMARK  status: ('A' for Active; 'I' for Inactive)
REMARK    1  A    between atoms: C1_1  and  C2_2
REMARK    2  A    between atoms: C9_10  and  O4_21
REMARK    3  A    between atoms: C10_11  and  C15_20
REMARK    4  A    between atoms: C12_13  and  O3_19
REMARK    5  A    between atoms: C13_15  and  O2_18
REMARK    6  A    between atoms: C16_22  and  O8_39
REMARK    7  A    between atoms: C19_25  and  C20_27
REMARK    8  A    between atoms: C20_27  and  C21_28
REMARK    9  A    between atoms: C20_27  and  C22_29
REMARK   10  A    between atoms: C20_27  and  O7_38
REMARK   11  A    between atoms: C22_29  and  C23_31
REMARK   12  A    between atoms: C22_29  and  O6_37
REMARK   13  A    between atoms: C23_31  and  C24_32
REMARK   14  A    between atoms: C24_32  and  C25_33
REMARK   15  A    between atoms: C25_33  and  C26_34
REMARK   16  A    between atoms: C25_33  and  C27_35
REMARK   17  A    between atoms: C25_33  and  O5_36
REMARK                            x       y       z     vdW  Elec       q    Type
REMARK                         _______ _______ _______ _____ _____    ______ ____
ROOT
ATOM      1  C   UNL     1      45.734  18.012  18.319  0.00  0.00    +0.050 C 
ATOM      2  C   UNL     1      46.499  17.965  19.643  0.00  0.00    -0.039 C 
ATOM      3  C   UNL     1      47.971  18.038  19.347  0.00  0.00    +0.092 C 
ATOM      4  C   UNL     1      48.428  16.773  18.665  0.00  0.00    +0.041 C 
ATOM      5  C   UNL     1      47.703  15.664  18.606  0.00  0.00    -0.117 C 
ATOM      6  C   UNL     1      46.418  15.559  19.325  0.00  0.00    +0.027 C 
ATOM      7  C   UNL     1      45.561  14.559  19.055  0.00  0.00    -0.108 C 
ATOM      8  C   UNL     1      45.838  13.636  18.028  0.00  0.00    +0.366 C 
ATOM      9  C   UNL     1      47.003  13.841  17.104  0.00  0.00    +0.115 C 
ATOM     12  C   UNL     1      47.397  12.534  16.427  0.00  0.00    +0.051 C 
ATOM     13  C   UNL     1      47.912  11.539  17.468  0.00  0.00    +0.140 C 
ATOM     16  C   UNL     1      49.129  12.140  18.176  0.00  0.00    +0.137 C 
ATOM     19  C   UNL     1      48.713  13.428  18.886  0.00  0.00    +0.060 C 
ATOM     20  O   UNL     1      45.125  12.662  17.888  0.00  0.00    -0.449 OA
ATOM     21  C   UNL     1      48.188  14.439  17.863  0.00  0.00    +0.011 C 
ATOM     22  C   UNL     1      49.295  14.830  16.881  0.00  0.00    +0.071 C 
ATOM     23  C   UNL     1      45.912  19.013  20.577  0.00  0.00    +0.001 C 
ATOM     38  C   UNL     1      44.714  18.314  21.269  0.00  0.00    +0.025 C 
ATOM     39  C   UNL     1      44.711  16.846  20.762  0.00  0.00    +0.016 C 
ATOM     40  C   UNL     1      46.170  16.622  20.348  0.00  0.00    +0.154 C 
ENDROOT
BRANCH   9  10
ATOM     10  O   UNL     1      46.616  14.773  16.091  0.00  0.00    -0.529 OA
ATOM     11  H   UNL     1      45.659  14.870  15.992  0.00  0.00    +0.380 HD
ENDBRANCH   9  10
BRANCH  13  14
ATOM     14  O   UNL     1      48.288  10.321  16.823  0.00  0.00    -0.560 OA
ATOM     15  H   UNL     1      48.314   9.555  17.412  0.00  0.00    +0.380 HD
ENDBRANCH  13  14
BRANCH  16  17
ATOM     17  O   UNL     1      50.146  12.431  17.215  0.00  0.00    -0.545 OA
ATOM     18  H   UNL     1      49.984  12.049  16.342  0.00  0.00    +0.377 HD
ENDBRANCH  16  17
BRANCH  23  24
ATOM     24  C   UNL     1      45.429  20.226  19.778  0.00  0.00    +0.113 C 
ATOM     37  C   UNL     1      46.269  21.449  20.151  0.00  0.00    +0.058 C 
BRANCH  24  25
ATOM     25  O   UNL     1      45.569  19.961  18.381  0.00  0.00    -0.541 OA
ATOM     26  H   UNL     1      46.127  20.597  17.913  0.00  0.00    +0.370 HD
ENDBRANCH  24  25
BRANCH  24  27
ATOM     27  C   UNL     1      43.959  20.498  20.101  0.00  0.00    +0.180 C 
BRANCH  27  28
ATOM     28  O   UNL     1      43.828  21.809  20.653  0.00  0.00    -0.553 OA
ATOM     29  H   UNL     1      42.946  22.192  20.551  0.00  0.00    +0.372 HD
ENDBRANCH  27  28
BRANCH  27  30
ATOM     30  C   UNL     1      43.129  20.398  18.820  0.00  0.00    +0.010 C 
BRANCH  30  31
ATOM     31  C   UNL     1      41.954  21.376  18.896  0.00  0.00    +0.044 C 
BRANCH  31  32
ATOM     32  C   UNL     1      40.646  20.592  19.024  0.00  0.00    +0.125 C 
ATOM     35  C   UNL     1      40.633  19.450  18.006  0.00  0.00    +0.007 C 
ATOM     36  C   UNL     1      39.464  21.526  18.755  0.00  0.00    +0.006 C 
BRANCH  32  33
ATOM     33  O   UNL     1      40.539  20.056  20.344  0.00  0.00    -0.560 OA
ATOM     34  H   UNL     1      39.944  19.296  20.412  0.00  0.00    +0.375 HD
ENDBRANCH  32  33
ENDBRANCH  31  32
ENDBRANCH  30  31
ENDBRANCH  27  30
ENDBRANCH  24  27
ENDBRANCH  23  24
BRANCH  40  41
ATOM     41  O   UNL     1      47.010  16.420  21.486  0.00  0.00    -0.533 OA
ATOM     42  H   UNL     1      47.229  15.493  21.655  0.00  0.00    +0.377 HD
ENDBRANCH  40  41
TORSDOF 12
ENDMDL
MODEL 5
REMARK VINA RESULT:      -6.4      2.447      8.066
REMARK  Name = ZINC38362222
REMARK  17 active torsions:
REMARK  status: ('A' for Active; 'I' for Inactive)
REMARK    1  A    between atoms: C1_1  and  C2_2
REMARK    2  A    between atoms: C9_10  and  O4_21
REMARK    3  A    between atoms: C10_11  and  C15_20
REMARK    4  A    between atoms: C12_13  and  O3_19
REMARK    5  A    between atoms: C13_15  and  O2_18
REMARK    6  A    between atoms: C16_22  and  O8_39
REMARK    7  A    between atoms: C19_25  and  C20_27
REMARK    8  A    between atoms: C20_27  and  C21_28
REMARK    9  A    between atoms: C20_27  and  C22_29
REMARK   10  A    between atoms: C20_27  and  O7_38
REMARK   11  A    between atoms: C22_29  and  C23_31
REMARK   12  A    between atoms: C22_29  and  O6_37
REMARK   13  A    between atoms: C23_31  and  C24_32
REMARK   14  A    between atoms: C24_32  and  C25_33
REMARK   15  A    between atoms: C25_33  and  C26_34
REMARK   16  A    between atoms: C25_33  and  C27_35
REMARK   17  A    between atoms: C25_33  and  O5_36
REMARK                            x       y       z     vdW  Elec       q    Type
REMARK                         _______ _______ _______ _____ _____    ______ ____
ROOT
ATOM      1  C   UNL     1      45.149  17.622  19.131  0.00  0.00    +0.050 C 
ATOM      2  C   UNL     1      45.897  17.603  20.466  0.00  0.00    -0.039 C 
ATOM      3  C   UNL     1      47.197  18.337  20.295  0.00  0.00    +0.092 C 
ATOM      4  C   UNL     1      48.122  17.558  19.395  0.00  0.00    +0.041 C 
ATOM      5  C   UNL     1      47.923  16.291  19.053  0.00  0.00    -0.117 C 
ATOM      6  C   UNL     1      46.817  15.512  19.643  0.00  0.00    +0.027 C 
ATOM      7  C   UNL     1      46.448  14.335  19.108  0.00  0.00    -0.108 C 
ATOM      8  C   UNL     1      47.059  13.860  17.931  0.00  0.00    +0.366 C 
ATOM      9  C   UNL     1      48.009  14.724  17.155  0.00  0.00    +0.115 C 
ATOM     12  C   UNL     1      48.894  13.879  16.247  0.00  0.00    +0.051 C 
ATOM     13  C   UNL     1      49.803  12.981  17.088  0.00  0.00    +0.140 C 
ATOM     16  C   UNL     1      50.676  13.857  17.990  0.00  0.00    +0.137 C 
ATOM     19  C   UNL     1      49.779  14.668  18.925  0.00  0.00    +0.060 C 
ATOM     20  O   UNL     1      46.812  12.736  17.540  0.00  0.00    -0.449 OA
ATOM     21  C   UNL     1      48.856  15.572  18.104  0.00  0.00    +0.011 C 
ATOM     22  C   UNL     1      49.675  16.590  17.307  0.00  0.00    +0.071 C 
ATOM     23  C   UNL     1      44.950  18.081  21.556  0.00  0.00    +0.001 C 
ATOM     38  C   UNL     1      44.170  16.818  22.000  0.00  0.00    +0.025 C 
ATOM     39  C   UNL     1      44.766  15.630  21.196  0.00  0.00    +0.016 C 
ATOM     40  C   UNL     1      46.175  16.124  20.847  0.00  0.00    +0.154 C 
ENDROOT
BRANCH   9  10
ATOM     10  O   UNL     1      47.244  15.613  16.337  0.00  0.00    -0.529 OA
ATOM     11  H   UNL     1      46.292  15.579  16.505  0.00  0.00    +0.380 HD
ENDBRANCH   9  10
BRANCH  13  14
ATOM     14  O   UNL     1      50.636  12.201  16.228  0.00  0.00    -0.560 OA
ATOM     15  H   UNL     1      50.661  12.515  15.314  0.00  0.00    +0.380 HD
ENDBRANCH  13  14
BRANCH  16  17
ATOM     17  O   UNL     1      51.455  14.744  17.186  0.00  0.00    -0.545 OA
ATOM     18  H   UNL     1      52.294  15.007  17.589  0.00  0.00    +0.377 HD
ENDBRANCH  16  17
BRANCH  23  24
ATOM     24  C   UNL     1      43.987  19.132  20.999  0.00  0.00    +0.113 C 
ATOM     37  C   UNL     1      44.322  20.500  21.599  0.00  0.00    +0.058 C 
BRANCH  24  25
ATOM     25  O   UNL     1      44.118  19.191  19.577  0.00  0.00    -0.541 OA
ATOM     26  H   UNL     1      43.505  19.805  19.151  0.00  0.00    +0.370 HD
ENDBRANCH  24  25
BRANCH  24  27
ATOM     27  C   UNL     1      42.551  18.753  21.365  0.00  0.00    +0.180 C 
BRANCH  27  28
ATOM     28  O   UNL     1      42.060  19.650  22.362  0.00  0.00    -0.553 OA
ATOM     29  H   UNL     1      41.104  19.791  22.329  0.00  0.00    +0.372 HD
ENDBRANCH  27  28
BRANCH  27  30
ATOM     30  C   UNL     1      41.667  18.842  20.119  0.00  0.00    +0.010 C 
BRANCH  30  31
ATOM     31  C   UNL     1      40.852  20.136  20.164  0.00  0.00    +0.044 C 
BRANCH  31  32
ATOM     32  C   UNL     1      41.040  20.902  18.853  0.00  0.00    +0.125 C 
ATOM     35  C   UNL     1      41.933  22.121  19.097  0.00  0.00    +0.007 C 
ATOM     36  C   UNL     1      39.677  21.366  18.334  0.00  0.00    +0.006 C 
BRANCH  32  33
ATOM     33  O   UNL     1      41.652  20.048  17.885  0.00  0.00    -0.560 OA
ATOM     34  H   UNL     1      42.212  19.358  18.268  0.00  0.00    +0.375 HD
ENDBRANCH  32  33
ENDBRANCH  31  32
ENDBRANCH  30  31
ENDBRANCH  27  30
ENDBRANCH  24  27
ENDBRANCH  23  24
BRANCH  40  41
ATOM     41  O   UNL     1      47.051  16.039  21.972  0.00  0.00    -0.533 OA
ATOM     42  H   UNL     1      47.990  16.057  21.743  0.00  0.00    +0.377 HD
ENDBRANCH  40  41
TORSDOF 12
ENDMDL
MODEL 6
REMARK VINA RESULT:      -6.3      2.660      7.781
REMARK  Name = ZINC38362222
REMARK  17 active torsions:
REMARK  status: ('A' for Active; 'I' for Inactive)
REMARK    1  A    between atoms: C1_1  and  C2_2
REMARK    2  A    between atoms: C9_10  and  O4_21
REMARK    3  A    between atoms: C10_11  and  C15_20
REMARK    4  A    between atoms: C12_13  and  O3_19
REMARK    5  A    between atoms: C13_15  and  O2_18
REMARK    6  A    between atoms: C16_22  and  O8_39
REMARK    7  A    between atoms: C19_25  and  C20_27
REMARK    8  A    between atoms: C20_27  and  C21_28
REMARK    9  A    between atoms: C20_27  and  C22_29
REMARK   10  A    between atoms: C20_27  and  O7_38
REMARK   11  A    between atoms: C22_29  and  C23_31
REMARK   12  A    between atoms: C22_29  and  O6_37
REMARK   13  A    between atoms: C23_31  and  C24_32
REMARK   14  A    between atoms: C24_32  and  C25_33
REMARK   15  A    between atoms: C25_33  and  C26_34
REMARK   16  A    between atoms: C25_33  and  C27_35
REMARK   17  A    between atoms: C25_33  and  O5_36
REMARK                            x       y       z     vdW  Elec       q    Type
REMARK                         _______ _______ _______ _____ _____    ______ ____
ROOT
ATOM      1  C   UNL     1      45.570  19.435  20.804  0.00  0.00    +0.050 C 
ATOM      2  C   UNL     1      46.299  20.357  19.826  0.00  0.00    -0.039 C 
ATOM      3  C   UNL     1      45.845  20.027  18.431  0.00  0.00    +0.092 C 
ATOM      4  C   UNL     1      46.350  18.664  18.028  0.00  0.00    +0.041 C 
ATOM      5  C   UNL     1      47.286  17.999  18.692  0.00  0.00    -0.117 C 
ATOM      6  C   UNL     1      47.994  18.620  19.828  0.00  0.00    +0.027 C 
ATOM      7  C   UNL     1      48.736  17.871  20.663  0.00  0.00    -0.108 C 
ATOM      8  C   UNL     1      48.791  16.472  20.514  0.00  0.00    +0.366 C 
ATOM      9  C   UNL     1      47.898  15.767  19.535  0.00  0.00    +0.115 C 
ATOM     12  C   UNL     1      48.449  14.389  19.191  0.00  0.00    +0.051 C 
ATOM     13  C   UNL     1      49.782  14.526  18.454  0.00  0.00    +0.140 C 
ATOM     16  C   UNL     1      49.564  15.329  17.170  0.00  0.00    +0.137 C 
ATOM     19  C   UNL     1      49.052  16.724  17.529  0.00  0.00    +0.060 C 
ATOM     20  O   UNL     1      49.572  15.827  21.187  0.00  0.00    -0.449 OA
ATOM     21  C   UNL     1      47.719  16.612  18.273  0.00  0.00    +0.011 C 
ATOM     22  C   UNL     1      46.654  15.984  17.371  0.00  0.00    +0.071 C 
ATOM     23  C   UNL     1      46.135  21.793  20.302  0.00  0.00    +0.001 C 
ATOM     38  C   UNL     1      47.278  22.013  21.326  0.00  0.00    +0.025 C 
ATOM     39  C   UNL     1      48.116  20.705  21.335  0.00  0.00    +0.016 C 
ATOM     40  C   UNL     1      47.824  20.100  19.957  0.00  0.00    +0.154 C 
ENDROOT
BRANCH   9  10
ATOM     10  O   UNL     1      46.612  15.601  20.137  0.00  0.00    -0.529 OA
ATOM     11  H   UNL     1      45.981  15.118  19.587  0.00  0.00    +0.380 HD
ENDBRANCH   9  10
BRANCH  13  14
ATOM     14  O   UNL     1      50.285  13.229  18.127  0.00  0.00    -0.560 OA
ATOM     15  H   UNL     1      51.227  13.214  17.914  0.00  0.00    +0.380 HD
ENDBRANCH  13  14
BRANCH  16  17
ATOM     17  O   UNL     1      48.603  14.665  16.347  0.00  0.00    -0.545 OA
ATOM     18  H   UNL     1      48.973  14.279  15.541  0.00  0.00    +0.377 HD
ENDBRANCH  16  17
BRANCH  23  24
ATOM     24  C   UNL     1      44.774  21.976  20.978  0.00  0.00    +0.113 C 
ATOM     37  C   UNL     1      44.261  20.620  21.467  0.00  0.00    +0.058 C 
BRANCH  24  25
ATOM     25  O   UNL     1      44.911  22.863  22.090  0.00  0.00    -0.541 OA
ATOM     26  H   UNL     1      45.518  22.547  22.773  0.00  0.00    +0.370 HD
ENDBRANCH  24  25
BRANCH  24  27
ATOM     27  C   UNL     1      43.782  22.566  19.974  0.00  0.00    +0.180 C 
BRANCH  27  28
ATOM     28  O   UNL     1      44.498  23.220  18.925  0.00  0.00    -0.553 OA
ATOM     29  H   UNL     1      44.432  24.185  18.946  0.00  0.00    +0.372 HD
ENDBRANCH  27  28
BRANCH  27  30
ATOM     30  C   UNL     1      42.926  21.443  19.384  0.00  0.00    +0.010 C 
BRANCH  30  31
ATOM     31  C   UNL     1      41.601  22.021  18.882  0.00  0.00    +0.044 C 
BRANCH  31  32
ATOM     32  C   UNL     1      40.513  20.950  18.965  0.00  0.00    +0.125 C 
ATOM     35  C   UNL     1      40.845  19.809  17.999  0.00  0.00    +0.007 C 
ATOM     36  C   UNL     1      39.163  21.562  18.584  0.00  0.00    +0.006 C 
BRANCH  32  33
ATOM     33  O   UNL     1      40.445  20.441  20.298  0.00  0.00    -0.560 OA
ATOM     34  H   UNL     1      39.863  19.674  20.397  0.00  0.00    +0.375 HD
ENDBRANCH  32  33
ENDBRANCH  31  32
ENDBRANCH  30  31
ENDBRANCH  27  30
ENDBRANCH  24  27
ENDBRANCH  23  24
BRANCH  40  41
ATOM     41  O   UNL     1      48.549  20.773  18.927  0.00  0.00    -0.533 OA
ATOM     42  H   UNL     1      48.023  20.972  18.140  0.00  0.00    +0.377 HD
ENDBRANCH  40  41
TORSDOF 12
ENDMDL
MODEL 7
REMARK VINA RESULT:      -6.3      1.825      3.436
REMARK  Name = ZINC38362222
REMARK  17 active torsions:
REMARK  status: ('A' for Active; 'I' for Inactive)
REMARK    1  A    between atoms: C1_1  and  C2_2
REMARK    2  A    between atoms: C9_10  and  O4_21
REMARK    3  A    between atoms: C10_11  and  C15_20
REMARK    4  A    between atoms: C12_13  and  O3_19
REMARK    5  A    between atoms: C13_15  and  O2_18
REMARK    6  A    between atoms: C16_22  and  O8_39
REMARK    7  A    between atoms: C19_25  and  C20_27
REMARK    8  A    between atoms: C20_27  and  C21_28
REMARK    9  A    between atoms: C20_27  and  C22_29
REMARK   10  A    between atoms: C20_27  and  O7_38
REMARK   11  A    between atoms: C22_29  and  C23_31
REMARK   12  A    between atoms: C22_29  and  O6_37
REMARK   13  A    between atoms: C23_31  and  C24_32
REMARK   14  A    between atoms: C24_32  and  C25_33
REMARK   15  A    between atoms: C25_33  and  C26_34
REMARK   16  A    between atoms: C25_33  and  C27_35
REMARK   17  A    between atoms: C25_33  and  O5_36
REMARK                            x       y       z     vdW  Elec       q    Type
REMARK                         _______ _______ _______ _____ _____    ______ ____
ROOT
ATOM      1  C   UNL     1      49.281  17.764  18.880  0.00  0.00    +0.050 C 
ATOM      2  C   UNL     1      49.404  17.758  20.404  0.00  0.00    -0.039 C 
ATOM      3  C   UNL     1      48.497  16.691  20.951  0.00  0.00    +0.092 C 
ATOM      4  C   UNL     1      47.054  17.077  20.745  0.00  0.00    +0.041 C 
ATOM      5  C   UNL     1      46.659  18.296  20.401  0.00  0.00    -0.117 C 
ATOM      6  C   UNL     1      47.625  19.408  20.311  0.00  0.00    +0.027 C 
ATOM      7  C   UNL     1      47.287  20.562  19.709  0.00  0.00    -0.108 C 
ATOM      8  C   UNL     1      46.032  20.704  19.087  0.00  0.00    +0.366 C 
ATOM      9  C   UNL     1      45.113  19.527  18.931  0.00  0.00    +0.115 C 
ATOM     12  C   UNL     1      43.679  19.985  18.698  0.00  0.00    +0.051 C 
ATOM     13  C   UNL     1      43.153  20.713  19.937  0.00  0.00    +0.140 C 
ATOM     16  C   UNL     1      43.203  19.762  21.135  0.00  0.00    +0.137 C 
ATOM     19  C   UNL     1      44.652  19.343  21.385  0.00  0.00    +0.060 C 
ATOM     20  O   UNL     1      45.689  21.793  18.670  0.00  0.00    -0.449 OA
ATOM     21  C   UNL     1      45.201  18.615  20.155  0.00  0.00    +0.011 C 
ATOM     22  C   UNL     1      44.420  17.324  19.903  0.00  0.00    +0.071 C 
ATOM     23  C   UNL     1      50.879  17.689  20.770  0.00  0.00    +0.001 C 
ATOM     38  C   UNL     1      51.369  19.160  20.759  0.00  0.00    +0.025 C 
ATOM     39  C   UNL     1      50.118  20.035  20.466  0.00  0.00    +0.016 C 
ATOM     40  C   UNL     1      48.960  19.147  20.935  0.00  0.00    +0.154 C 
ENDROOT
BRANCH   9  10
ATOM     10  O   UNL     1      45.535  18.774  17.792  0.00  0.00    -0.529 OA
ATOM     11  H   UNL     1      45.990  17.949  18.013  0.00  0.00    +0.380 HD
ENDBRANCH   9  10
BRANCH  13  14
ATOM     14  O   UNL     1      41.804  21.129  19.712  0.00  0.00    -0.560 OA
ATOM     15  H   UNL     1      41.235  20.438  19.348  0.00  0.00    +0.380 HD
ENDBRANCH  13  14
BRANCH  16  17
ATOM     17  O   UNL     1      42.411  18.604  20.861  0.00  0.00    -0.545 OA
ATOM     18  H   UNL     1      42.035  18.188  21.648  0.00  0.00    +0.377 HD
ENDBRANCH  16  17
BRANCH  23  24
ATOM     24  C   UNL     1      51.645  16.867  19.732  0.00  0.00    +0.113 C 
ATOM     37  C   UNL     1      52.166  15.583  20.382  0.00  0.00    +0.058 C 
BRANCH  24  25
ATOM     25  O   UNL     1      50.772  16.533  18.651  0.00  0.00    -0.541 OA
ATOM     26  H   UNL     1      50.541  15.595  18.606  0.00  0.00    +0.370 HD
ENDBRANCH  24  25
BRANCH  24  27
ATOM     27  C   UNL     1      52.824  17.685  19.202  0.00  0.00    +0.180 C 
BRANCH  27  28
ATOM     28  O   UNL     1      53.979  16.849  19.108  0.00  0.00    -0.553 OA
ATOM     29  H   UNL     1      53.849  15.957  19.458  0.00  0.00    +0.372 HD
ENDBRANCH  27  28
BRANCH  27  30
ATOM     30  C   UNL     1      52.480  18.238  17.818  0.00  0.00    +0.010 C 
BRANCH  30  31
ATOM     31  C   UNL     1      52.711  19.750  17.801  0.00  0.00    +0.044 C 
BRANCH  31  32
ATOM     32  C   UNL     1      51.804  20.393  16.751  0.00  0.00    +0.125 C 
ATOM     35  C   UNL     1      50.721  21.220  17.448  0.00  0.00    +0.007 C 
ATOM     36  C   UNL     1      51.144  19.299  15.908  0.00  0.00    +0.006 C 
BRANCH  32  33
ATOM     33  O   UNL     1      52.581  21.243  15.905  0.00  0.00    -0.560 OA
ATOM     34  H   UNL     1      53.520  21.013  15.873  0.00  0.00    +0.375 HD
ENDBRANCH  32  33
ENDBRANCH  31  32
ENDBRANCH  30  31
ENDBRANCH  27  30
ENDBRANCH  24  27
ENDBRANCH  23  24
BRANCH  40  41
ATOM     41  O   UNL     1      48.849  19.142  22.359  0.00  0.00    -0.533 OA
ATOM     42  H   UNL     1      49.663  18.892  22.817  0.00  0.00    +0.377 HD
ENDBRANCH  40  41
TORSDOF 12
ENDMDL
MODEL 8
REMARK VINA RESULT:      -6.2      3.238      7.186
REMARK  Name = ZINC38362222
REMARK  17 active torsions:
REMARK  status: ('A' for Active; 'I' for Inactive)
REMARK    1  A    between atoms: C1_1  and  C2_2
REMARK    2  A    between atoms: C9_10  and  O4_21
REMARK    3  A    between atoms: C10_11  and  C15_20
REMARK    4  A    between atoms: C12_13  and  O3_19
REMARK    5  A    between atoms: C13_15  and  O2_18
REMARK    6  A    between atoms: C16_22  and  O8_39
REMARK    7  A    between atoms: C19_25  and  C20_27
REMARK    8  A    between atoms: C20_27  and  C21_28
REMARK    9  A    between atoms: C20_27  and  C22_29
REMARK   10  A    between atoms: C20_27  and  O7_38
REMARK   11  A    between atoms: C22_29  and  C23_31
REMARK   12  A    between atoms: C22_29  and  O6_37
REMARK   13  A    between atoms: C23_31  and  C24_32
REMARK   14  A    between atoms: C24_32  and  C25_33
REMARK   15  A    between atoms: C25_33  and  C26_34
REMARK   16  A    between atoms: C25_33  and  C27_35
REMARK   17  A    between atoms: C25_33  and  O5_36
REMARK                            x       y       z     vdW  Elec       q    Type
REMARK                         _______ _______ _______ _____ _____    ______ ____
ROOT
ATOM      1  C   UNL     1      44.386  17.564  19.911  0.00  0.00    +0.050 C 
ATOM      2  C   UNL     1      45.638  18.432  19.767  0.00  0.00    -0.039 C 
ATOM      3  C   UNL     1      45.990  18.522  18.308  0.00  0.00    +0.092 C 
ATOM      4  C   UNL     1      46.464  17.183  17.802  0.00  0.00    +0.041 C 
ATOM      5  C   UNL     1      46.793  16.170  18.594  0.00  0.00    -0.117 C 
ATOM      6  C   UNL     1      46.828  16.335  20.060  0.00  0.00    +0.027 C 
ATOM      7  C   UNL     1      46.892  15.263  20.868  0.00  0.00    -0.108 C 
ATOM      8  C   UNL     1      46.850  13.960  20.335  0.00  0.00    +0.366 C 
ATOM      9  C   UNL     1      46.565  13.734  18.879  0.00  0.00    +0.115 C 
ATOM     12  C   UNL     1      47.043  12.356  18.439  0.00  0.00    +0.051 C 
ATOM     13  C   UNL     1      48.566  12.271  18.542  0.00  0.00    +0.140 C 
ATOM     16  C   UNL     1      49.189  13.343  17.645  0.00  0.00    +0.137 C 
ATOM     19  C   UNL     1      48.737  14.724  18.122  0.00  0.00    +0.060 C 
ATOM     20  O   UNL     1      47.047  13.008  21.063  0.00  0.00    -0.449 OA
ATOM     21  C   UNL     1      47.212  14.830  18.032  0.00  0.00    +0.011 C 
ATOM     22  C   UNL     1      46.752  14.708  16.577  0.00  0.00    +0.071 C 
ATOM     23  C   UNL     1      45.414  19.732  20.523  0.00  0.00    +0.001 C 
ATOM     38  C   UNL     1      45.822  19.426  21.987  0.00  0.00    +0.025 C 
ATOM     39  C   UNL     1      46.352  17.965  21.997  0.00  0.00    +0.016 C 
ATOM     40  C   UNL     1      46.795  17.750  20.545  0.00  0.00    +0.154 C 
ENDROOT
BRANCH   9  10
ATOM     10  O   UNL     1      45.151  13.805  18.680  0.00  0.00    -0.529 OA
ATOM     11  H   UNL     1      44.683  12.987  18.898  0.00  0.00    +0.380 HD
ENDBRANCH   9  10
BRANCH  13  14
ATOM     14  O   UNL     1      49.005  10.979  18.118  0.00  0.00    -0.560 OA
ATOM     15  H   UNL     1      48.318  10.300  18.151  0.00  0.00    +0.380 HD
ENDBRANCH  13  14
BRANCH  16  17
ATOM     17  O   UNL     1      48.767  13.142  16.295  0.00  0.00    -0.545 OA
ATOM     18  H   UNL     1      47.933  12.660  16.210  0.00  0.00    +0.377 HD
ENDBRANCH  16  17
BRANCH  23  24
ATOM     24  C   UNL     1      43.940  20.138  20.457  0.00  0.00    +0.113 C 
ATOM     37  C   UNL     1      43.076  18.891  20.256  0.00  0.00    +0.058 C 
BRANCH  24  25
ATOM     25  O   UNL     1      43.569  20.783  21.677  0.00  0.00    -0.541 OA
ATOM     26  H   UNL     1      44.195  21.459  21.971  0.00  0.00    +0.370 HD
ENDBRANCH  24  25
BRANCH  24  27
ATOM     27  C   UNL     1      43.728  21.100  19.287  0.00  0.00    +0.180 C 
BRANCH  27  28
ATOM     28  O   UNL     1      42.551  20.725  18.570  0.00  0.00    -0.553 OA
ATOM     29  H   UNL     1      42.721  20.405  17.673  0.00  0.00    +0.372 HD
ENDBRANCH  27  28
BRANCH  27  30
ATOM     30  C   UNL     1      43.568  22.525  19.820  0.00  0.00    +0.010 C 
BRANCH  30  31
ATOM     31  C   UNL     1      44.888  23.282  19.656  0.00  0.00    +0.044 C 
BRANCH  31  32
ATOM     32  C   UNL     1      45.375  23.761  21.025  0.00  0.00    +0.125 C 
ATOM     35  C   UNL     1      45.789  25.232  20.933  0.00  0.00    +0.007 C 
ATOM     36  C   UNL     1      46.576  22.920  21.463  0.00  0.00    +0.006 C 
BRANCH  32  33
ATOM     33  O   UNL     1      44.322  23.622  21.981  0.00  0.00    -0.560 OA
ATOM     34  H   UNL     1      44.398  22.834  22.537  0.00  0.00    +0.375 HD
ENDBRANCH  32  33
ENDBRANCH  31  32
ENDBRANCH  30  31
ENDBRANCH  27  30
ENDBRANCH  24  27
ENDBRANCH  23  24
BRANCH  40  41
ATOM     41  O   UNL     1      48.042  18.394  20.279  0.00  0.00    -0.533 OA
ATOM     42  H   UNL     1      48.456  18.789  21.059  0.00  0.00    +0.377 HD
ENDBRANCH  40  41
TORSDOF 12
ENDMDL
MODEL 9
REMARK VINA RESULT:      -6.2      2.834      6.987
REMARK  Name = ZINC38362222
REMARK  17 active torsions:
REMARK  status: ('A' for Active; 'I' for Inactive)
REMARK    1  A    between atoms: C1_1  and  C2_2
REMARK    2  A    between atoms: C9_10  and  O4_21
REMARK    3  A    between atoms: C10_11  and  C15_20
REMARK    4  A    between atoms: C12_13  and  O3_19
REMARK    5  A    between atoms: C13_15  and  O2_18
REMARK    6  A    between atoms: C16_22  and  O8_39
REMARK    7  A    between atoms: C19_25  and  C20_27
REMARK    8  A    between atoms: C20_27  and  C21_28
REMARK    9  A    between atoms: C20_27  and  C22_29
REMARK   10  A    between atoms: C20_27  and  O7_38
REMARK   11  A    between atoms: C22_29  and  C23_31
REMARK   12  A    between atoms: C22_29  and  O6_37
REMARK   13  A    between atoms: C23_31  and  C24_32
REMARK   14  A    between atoms: C24_32  and  C25_33
REMARK   15  A    between atoms: C25_33  and  C26_34
REMARK   16  A    between atoms: C25_33  and  C27_35
REMARK   17  A    between atoms: C25_33  and  O5_36
REMARK                            x       y       z     vdW  Elec       q    Type
REMARK                         _______ _______ _______ _____ _____    ______ ____
ROOT
ATOM      1  C   UNL     1      48.019  15.911  20.269  0.00  0.00    +0.050 C 
ATOM      2  C   UNL     1      47.234  16.537  19.115  0.00  0.00    -0.039 C 
ATOM      3  C   UNL     1      48.064  16.441  17.866  0.00  0.00    +0.092 C 
ATOM      4  C   UNL     1      49.266  17.346  17.968  0.00  0.00    +0.041 C 
ATOM      5  C   UNL     1      49.403  18.289  18.891  0.00  0.00    -0.117 C 
ATOM      6  C   UNL     1      48.304  18.597  19.827  0.00  0.00    +0.027 C 
ATOM      7  C   UNL     1      48.526  19.347  20.921  0.00  0.00    -0.108 C 
ATOM      8  C   UNL     1      49.826  19.789  21.234  0.00  0.00    +0.366 C 
ATOM      9  C   UNL     1      51.013  19.299  20.457  0.00  0.00    +0.115 C 
ATOM     12  C   UNL     1      52.199  20.241  20.625  0.00  0.00    +0.051 C 
ATOM     13  C   UNL     1      51.879  21.603  20.005  0.00  0.00    +0.140 C 
ATOM     16  C   UNL     1      51.575  21.416  18.517  0.00  0.00    +0.137 C 
ATOM     19  C   UNL     1      50.358  20.504  18.362  0.00  0.00    +0.060 C 
ATOM     20  O   UNL     1      49.988  20.577  22.145  0.00  0.00    -0.449 OA
ATOM     21  C   UNL     1      50.653  19.135  18.980  0.00  0.00    +0.011 C 
ATOM     22  C   UNL     1      51.801  18.448  18.236  0.00  0.00    +0.071 C 
ATOM     23  C   UNL     1      45.842  15.924  19.089  0.00  0.00    +0.001 C 
ATOM     38  C   UNL     1      45.008  16.769  20.086  0.00  0.00    +0.025 C 
ATOM     39  C   UNL     1      45.944  17.902  20.589  0.00  0.00    +0.016 C 
ATOM     40  C   UNL     1      46.971  18.028  19.458  0.00  0.00    +0.154 C 
ENDROOT
BRANCH   9  10
ATOM     10  O   UNL     1      51.384  18.015  20.964  0.00  0.00    -0.529 OA
ATOM     11  H   UNL     1      51.544  17.353  20.277  0.00  0.00    +0.380 HD
ENDBRANCH   9  10
BRANCH  13  14
ATOM     14  O   UNL     1      53.000  22.475  20.158  0.00  0.00    -0.560 OA
ATOM     15  H   UNL     1      53.392  22.762  19.323  0.00  0.00    +0.380 HD
ENDBRANCH  13  14
BRANCH  16  17
ATOM     17  O   UNL     1      52.701  20.824  17.868  0.00  0.00    -0.545 OA
ATOM     18  H   UNL     1      52.667  19.858  17.821  0.00  0.00    +0.377 HD
ENDBRANCH  16  17
BRANCH  23  24
ATOM     24  C   UNL     1      45.896  14.465  19.546  0.00  0.00    +0.113 C 
ATOM     37  C   UNL     1      46.307  14.405  21.018  0.00  0.00    +0.058 C 
BRANCH  24  25
ATOM     25  O   UNL     1      44.607  13.869  19.386  0.00  0.00    -0.541 OA
ATOM     26  H   UNL     1      43.956  14.445  18.963  0.00  0.00    +0.370 HD
ENDBRANCH  24  25
BRANCH  24  27
ATOM     27  C   UNL     1      46.918  13.703  18.700  0.00  0.00    +0.180 C 
BRANCH  27  28
ATOM     28  O   UNL     1      47.434  12.603  19.452  0.00  0.00    -0.553 OA
ATOM     29  H   UNL     1      47.168  11.737  19.115  0.00  0.00    +0.372 HD
ENDBRANCH  27  28
BRANCH  27  30
ATOM     30  C   UNL     1      46.242  13.181  17.431  0.00  0.00    +0.010 C 
BRANCH  30  31
ATOM     31  C   UNL     1      47.229  12.313  16.647  0.00  0.00    +0.044 C 
BRANCH  31  32
ATOM     32  C   UNL     1      47.835  13.132  15.506  0.00  0.00    +0.125 C 
ATOM     35  C   UNL     1      47.857  12.290  14.228  0.00  0.00    +0.007 C 
ATOM     36  C   UNL     1      49.264  13.540  15.872  0.00  0.00    +0.006 C 
BRANCH  32  33
ATOM     33  O   UNL     1      47.046  14.304  15.290  0.00  0.00    -0.560 OA
ATOM     34  H   UNL     1      47.112  14.663  14.394  0.00  0.00    +0.375 HD
ENDBRANCH  32  33
ENDBRANCH  31  32
ENDBRANCH  30  31
ENDBRANCH  27  30
ENDBRANCH  24  27
ENDBRANCH  23  24
BRANCH  40  41
ATOM     41  O   UNL     1      46.428  18.725  18.336  0.00  0.00    -0.533 OA
ATOM     42  H   UNL     1      45.622  18.329  17.978  0.00  0.00    +0.377 HD
ENDBRANCH  40  41
TORSDOF 12
ENDMDL
