MODEL 1
REMARK VINA RESULT:      -6.4      0.000      0.000
REMARK  Name = ZINC95486190
REMARK  12 active torsions:
REMARK  status: ('A' for Active; 'I' for Inactive)
REMARK    1  A    between atoms: C1_1  and  C2_2
REMARK    2  A    between atoms: C2_2  and  C26_32
REMARK    3  A    between atoms: C3_3  and  C4_4
REMARK    4  A    between atoms: C4_4  and  C5_5
REMARK    5  A    between atoms: C10_10  and  O1_11
REMARK    6  A    between atoms: C14_16  and  O6_24
REMARK    7  A    between atoms: C15_17  and  O5_22
REMARK    8  A    between atoms: C16_18  and  O4_21
REMARK    9  A    between atoms: O5_22  and  C18_23
REMARK   10  A    between atoms: O6_24  and  C19_25
REMARK   11  A    between atoms: C22_28  and  C24_30
REMARK   12  A    between atoms: C22_28  and  C25_31
REMARK                            x       y       z     vdW  Elec       q    Type
REMARK                         _______ _______ _______ _____ _____    ______ ____
ROOT
ATOM      6  C   UNL     1      47.950  18.913  18.754  0.00  0.00    -0.130 A 
ATOM      7  C   UNL     1      46.765  18.662  19.418  0.00  0.00    +0.011 A 
ATOM      8  C   UNL     1      46.196  17.389  19.394  0.00  0.00    -0.084 A 
ATOM      9  C   UNL     1      44.908  17.161  20.076  0.00  0.00    +0.017 C 
ATOM     10  C   UNL     1      44.151  18.194  20.415  0.00  0.00    -0.005 C 
ATOM     11  C   UNL     1      44.564  19.602  20.085  0.00  0.00    -0.035 C 
ATOM     12  C   UNL     1      44.118  19.936  18.660  0.00  0.00    +0.036 C 
ATOM     13  C   UNL     1      43.889  20.567  21.061  0.00  0.00    +0.040 C 
ATOM     14  C   UNL     1      46.834  16.343  18.713  0.00  0.00    +0.183 A 
ATOM     15  C   UNL     1      48.037  16.611  18.041  0.00  0.00    -0.261 A 
ATOM     16  C   UNL     1      48.695  15.510  17.312  0.00  0.00    +0.446 A 
ATOM     17  C   UNL     1      47.884  14.292  17.110  0.00  0.00    -0.176 A 
ATOM     18  C   UNL     1      48.293  13.296  16.222  0.00  0.00    +0.037 A 
ATOM     19  C   UNL     1      47.512  12.171  16.050  0.00  0.00    +0.101 A 
ATOM     22  C   UNL     1      46.318  12.035  16.762  0.00  0.00    +0.104 A 
ATOM     25  C   UNL     1      45.907  13.021  17.646  0.00  0.00    +0.105 A 
ATOM     28  C   UNL     1      46.688  14.160  17.834  0.00  0.00    +0.111 A 
ATOM     29  O   UNL     1      49.839  15.600  16.901  0.00  0.00    -0.431 OA
ATOM     30  O   UNL     1      46.293  15.110  18.707  0.00  0.00    -0.209 OA
ATOM     31  C   UNL     1      46.079  19.761  20.188  0.00  0.00    +0.105 C 
ATOM     32  C   UNL     1      48.588  17.898  18.057  0.00  0.00    +0.211 A 
ENDROOT
BRANCH  19  20
ATOM     20  O   UNL     1      47.904  11.196  15.187  0.00  0.00    -0.298 OA
ATOM     21  C   UNL     1      49.212  11.316  14.623  0.00  0.00    +0.249 C 
ENDBRANCH  19  20
BRANCH  22  23
ATOM     23  O   UNL     1      45.552  10.927  16.586  0.00  0.00    -0.309 OA
ATOM     24  C   UNL     1      44.504  11.010  15.618  0.00  0.00    +0.235 C 
ENDBRANCH  22  23
BRANCH  25  26
ATOM     26  O   UNL     1      44.742  12.874  18.333  0.00  0.00    -0.463 OA
ATOM     27  H   UNL     1      44.461  13.670  18.806  0.00  0.00    +0.392 HD
ENDBRANCH  25  26
BRANCH  32  33
ATOM     33  O   UNL     1      49.744  18.151  17.396  0.00  0.00    -0.472 OA
ATOM     34  H   UNL     1      49.810  19.050  17.047  0.00  0.00    +0.398 HD
ENDBRANCH  32  33
BRANCH   6   5
ATOM      5  C   UNL     1      48.547  20.297  18.783  0.00  0.00    +0.123 C 
BRANCH   5   4
ATOM      1  C   UNL     1      51.111  21.185  18.011  0.00  0.00    +0.075 C 
ATOM      2  C   UNL     1      50.841  20.810  19.446  0.00  0.00    -0.116 C 
ATOM      3  C   UNL     1      51.921  20.976  20.483  0.00  0.00    +0.072 C 
ATOM      4  C   UNL     1      49.668  20.339  19.790  0.00  0.00    -0.061 C 
ENDBRANCH   5   4
ENDBRANCH   6   5
TORSDOF 6
ENDMDL
MODEL 2
REMARK VINA RESULT:      -6.1      3.580      7.389
REMARK  Name = ZINC95486190
REMARK  12 active torsions:
REMARK  status: ('A' for Active; 'I' for Inactive)
REMARK    1  A    between atoms: C1_1  and  C2_2
REMARK    2  A    between atoms: C2_2  and  C26_32
REMARK    3  A    between atoms: C3_3  and  C4_4
REMARK    4  A    between atoms: C4_4  and  C5_5
REMARK    5  A    between atoms: C10_10  and  O1_11
REMARK    6  A    between atoms: C14_16  and  O6_24
REMARK    7  A    between atoms: C15_17  and  O5_22
REMARK    8  A    between atoms: C16_18  and  O4_21
REMARK    9  A    between atoms: O5_22  and  C18_23
REMARK   10  A    between atoms: O6_24  and  C19_25
REMARK   11  A    between atoms: C22_28  and  C24_30
REMARK   12  A    between atoms: C22_28  and  C25_31
REMARK                            x       y       z     vdW  Elec       q    Type
REMARK                         _______ _______ _______ _____ _____    ______ ____
ROOT
ATOM      6  C   UNL     1      49.303  17.199  20.146  0.00  0.00    -0.130 A 
ATOM      7  C   UNL     1      49.709  18.430  19.669  0.00  0.00    +0.011 A 
ATOM      8  C   UNL     1      48.796  19.477  19.543  0.00  0.00    -0.084 A 
ATOM      9  C   UNL     1      49.250  20.767  18.990  0.00  0.00    +0.017 C 
ATOM     10  C   UNL     1      50.395  20.833  18.327  0.00  0.00    -0.005 C 
ATOM     11  C   UNL     1      51.230  19.605  18.094  0.00  0.00    -0.035 C 
ATOM     12  C   UNL     1      50.723  18.880  16.845  0.00  0.00    +0.036 C 
ATOM     13  C   UNL     1      52.686  20.019  17.877  0.00  0.00    +0.040 C 
ATOM     14  C   UNL     1      47.458  19.296  19.921  0.00  0.00    +0.183 A 
ATOM     15  C   UNL     1      47.058  18.041  20.402  0.00  0.00    -0.261 A 
ATOM     16  C   UNL     1      45.644  17.852  20.783  0.00  0.00    +0.446 A 
ATOM     17  C   UNL     1      44.712  18.913  20.352  0.00  0.00    -0.176 A 
ATOM     18  C   UNL     1      43.330  18.727  20.421  0.00  0.00    +0.037 A 
ATOM     19  C   UNL     1      42.483  19.734  20.006  0.00  0.00    +0.101 A 
ATOM     22  C   UNL     1      43.010  20.933  19.520  0.00  0.00    +0.104 A 
ATOM     25  C   UNL     1      44.381  21.125  19.451  0.00  0.00    +0.105 A 
ATOM     28  C   UNL     1      45.249  20.118  19.870  0.00  0.00    +0.111 A 
ATOM     29  O   UNL     1      45.270  16.879  21.414  0.00  0.00    -0.431 OA
ATOM     30  O   UNL     1      46.583  20.314  19.816  0.00  0.00    -0.209 OA
ATOM     31  C   UNL     1      51.150  18.659  19.291  0.00  0.00    +0.105 C 
ATOM     32  C   UNL     1      47.980  16.992  20.506  0.00  0.00    +0.211 A 
ENDROOT
BRANCH  19  20
ATOM     20  O   UNL     1      41.136  19.560  20.070  0.00  0.00    -0.298 OA
ATOM     21  C   UNL     1      40.609  19.021  21.284  0.00  0.00    +0.249 C 
ENDBRANCH  19  20
BRANCH  22  23
ATOM     23  O   UNL     1      42.170  21.920  19.110  0.00  0.00    -0.309 OA
ATOM     24  C   UNL     1      41.065  21.533  18.291  0.00  0.00    +0.235 C 
ENDBRANCH  22  23
BRANCH  25  26
ATOM     26  O   UNL     1      44.879  22.298  18.975  0.00  0.00    -0.463 OA
ATOM     27  H   UNL     1      44.375  23.077  19.244  0.00  0.00    +0.392 HD
ENDBRANCH  25  26
BRANCH  32  33
ATOM     33  O   UNL     1      47.581  15.779  20.963  0.00  0.00    -0.472 OA
ATOM     34  H   UNL     1      48.305  15.218  21.273  0.00  0.00    +0.398 HD
ENDBRANCH  32  33
BRANCH   6   5
ATOM      5  C   UNL     1      50.300  16.075  20.269  0.00  0.00    +0.123 C 
BRANCH   5   4
ATOM      1  C   UNL     1      52.700  15.539  18.888  0.00  0.00    +0.075 C 
ATOM      2  C   UNL     1      51.402  14.947  18.405  0.00  0.00    -0.116 C 
ATOM      3  C   UNL     1      51.395  14.010  17.225  0.00  0.00    +0.072 C 
ATOM      4  C   UNL     1      50.280  15.246  19.010  0.00  0.00    -0.061 C 
ENDBRANCH   5   4
ENDBRANCH   6   5
TORSDOF 6
ENDMDL
MODEL 3
REMARK VINA RESULT:      -6.0      1.516      4.661
REMARK  Name = ZINC95486190
REMARK  12 active torsions:
REMARK  status: ('A' for Active; 'I' for Inactive)
REMARK    1  A    between atoms: C1_1  and  C2_2
REMARK    2  A    between atoms: C2_2  and  C26_32
REMARK    3  A    between atoms: C3_3  and  C4_4
REMARK    4  A    between atoms: C4_4  and  C5_5
REMARK    5  A    between atoms: C10_10  and  O1_11
REMARK    6  A    between atoms: C14_16  and  O6_24
REMARK    7  A    between atoms: C15_17  and  O5_22
REMARK    8  A    between atoms: C16_18  and  O4_21
REMARK    9  A    between atoms: O5_22  and  C18_23
REMARK   10  A    between atoms: O6_24  and  C19_25
REMARK   11  A    between atoms: C22_28  and  C24_30
REMARK   12  A    between atoms: C22_28  and  C25_31
REMARK                            x       y       z     vdW  Elec       q    Type
REMARK                         _______ _______ _______ _____ _____    ______ ____
ROOT
ATOM      6  C   UNL     1      47.909  19.481  19.693  0.00  0.00    -0.130 A 
ATOM      7  C   UNL     1      49.149  19.532  19.088  0.00  0.00    +0.011 A 
ATOM      8  C   UNL     1      49.586  18.484  18.279  0.00  0.00    -0.084 A 
ATOM      9  C   UNL     1      50.934  18.547  17.682  0.00  0.00    +0.017 C 
ATOM     10  C   UNL     1      51.826  19.402  18.159  0.00  0.00    -0.005 C 
ATOM     11  C   UNL     1      51.503  20.290  19.328  0.00  0.00    -0.035 C 
ATOM     12  C   UNL     1      51.763  19.526  20.628  0.00  0.00    +0.036 C 
ATOM     13  C   UNL     1      52.402  21.526  19.284  0.00  0.00    +0.040 C 
ATOM     14  C   UNL     1      48.758  17.375  18.053  0.00  0.00    +0.183 A 
ATOM     15  C   UNL     1      47.501  17.334  18.673  0.00  0.00    -0.261 A 
ATOM     16  C   UNL     1      46.641  16.157  18.444  0.00  0.00    +0.446 A 
ATOM     17  C   UNL     1      47.296  14.992  17.815  0.00  0.00    -0.176 A 
ATOM     18  C   UNL     1      46.668  13.745  17.784  0.00  0.00    +0.037 A 
ATOM     19  C   UNL     1      47.306  12.673  17.194  0.00  0.00    +0.101 A 
ATOM     22  C   UNL     1      48.574  12.839  16.632  0.00  0.00    +0.104 A 
ATOM     25  C   UNL     1      49.201  14.075  16.657  0.00  0.00    +0.105 A 
ATOM     28  C   UNL     1      48.567  15.167  17.246  0.00  0.00    +0.111 A 
ATOM     29  O   UNL     1      45.464  16.147  18.755  0.00  0.00    -0.431 OA
ATOM     30  O   UNL     1      49.174  16.373  17.255  0.00  0.00    -0.209 OA
ATOM     31  C   UNL     1      50.041  20.730  19.288  0.00  0.00    +0.105 C 
ATOM     32  C   UNL     1      47.082  18.385  19.499  0.00  0.00    +0.211 A 
ENDROOT
BRANCH  19  20
ATOM     20  O   UNL     1      46.701  11.456  17.161  0.00  0.00    -0.298 OA
ATOM     21  C   UNL     1      45.647  11.281  16.212  0.00  0.00    +0.249 C 
ENDBRANCH  19  20
BRANCH  22  23
ATOM     23  O   UNL     1      49.198  11.779  16.055  0.00  0.00    -0.309 OA
ATOM     24  C   UNL     1      49.009  11.600  14.650  0.00  0.00    +0.235 C 
ENDBRANCH  22  23
BRANCH  25  26
ATOM     26  O   UNL     1      50.436  14.221  16.105  0.00  0.00    -0.463 OA
ATOM     27  H   UNL     1      50.626  15.118  15.798  0.00  0.00    +0.392 HD
ENDBRANCH  25  26
BRANCH  32  33
ATOM     33  O   UNL     1      45.869  18.332  20.104  0.00  0.00    -0.472 OA
ATOM     34  H   UNL     1      45.912  18.289  21.069  0.00  0.00    +0.398 HD
ENDBRANCH  32  33
BRANCH   6   5
ATOM      5  C   UNL     1      47.454  20.619  20.572  0.00  0.00    +0.123 C 
BRANCH   5   4
ATOM      1  C   UNL     1      44.982  21.426  21.664  0.00  0.00    +0.075 C 
ATOM      2  C   UNL     1      45.422  21.949  20.321  0.00  0.00    -0.116 C 
ATOM      3  C   UNL     1      44.574  22.959  19.592  0.00  0.00    +0.072 C 
ATOM      4  C   UNL     1      46.541  21.526  19.787  0.00  0.00    -0.061 C 
ENDBRANCH   5   4
ENDBRANCH   6   5
TORSDOF 6
ENDMDL
MODEL 4
REMARK VINA RESULT:      -6.0      2.972      5.599
REMARK  Name = ZINC95486190
REMARK  12 active torsions:
REMARK  status: ('A' for Active; 'I' for Inactive)
REMARK    1  A    between atoms: C1_1  and  C2_2
REMARK    2  A    between atoms: C2_2  and  C26_32
REMARK    3  A    between atoms: C3_3  and  C4_4
REMARK    4  A    between atoms: C4_4  and  C5_5
REMARK    5  A    between atoms: C10_10  and  O1_11
REMARK    6  A    between atoms: C14_16  and  O6_24
REMARK    7  A    between atoms: C15_17  and  O5_22
REMARK    8  A    between atoms: C16_18  and  O4_21
REMARK    9  A    between atoms: O5_22  and  C18_23
REMARK   10  A    between atoms: O6_24  and  C19_25
REMARK   11  A    between atoms: C22_28  and  C24_30
REMARK   12  A    between atoms: C22_28  and  C25_31
REMARK                            x       y       z     vdW  Elec       q    Type
REMARK                         _______ _______ _______ _____ _____    ______ ____
ROOT
ATOM      6  C   UNL     1      46.131  19.204  18.546  0.00  0.00    -0.130 A 
ATOM      7  C   UNL     1      46.957  20.032  19.280  0.00  0.00    +0.011 A 
ATOM      8  C   UNL     1      48.302  19.711  19.461  0.00  0.00    -0.084 A 
ATOM      9  C   UNL     1      49.149  20.593  20.287  0.00  0.00    +0.017 C 
ATOM     10  C   UNL     1      48.586  21.473  21.101  0.00  0.00    -0.005 C 
ATOM     11  C   UNL     1      47.091  21.568  21.228  0.00  0.00    -0.035 C 
ATOM     12  C   UNL     1      46.606  20.539  22.251  0.00  0.00    +0.036 C 
ATOM     13  C   UNL     1      46.715  22.970  21.711  0.00  0.00    +0.040 C 
ATOM     14  C   UNL     1      48.836  18.554  18.878  0.00  0.00    +0.183 A 
ATOM     15  C   UNL     1      47.987  17.720  18.136  0.00  0.00    -0.261 A 
ATOM     16  C   UNL     1      48.551  16.494  17.538  0.00  0.00    +0.446 A 
ATOM     17  C   UNL     1      49.893  16.101  18.016  0.00  0.00    -0.176 A 
ATOM     18  C   UNL     1      50.417  14.840  17.727  0.00  0.00    +0.037 A 
ATOM     19  C   UNL     1      51.671  14.499  18.192  0.00  0.00    +0.101 A 
ATOM     22  C   UNL     1      52.408  15.414  18.947  0.00  0.00    +0.104 A 
ATOM     25  C   UNL     1      51.894  16.668  19.235  0.00  0.00    +0.105 A 
ATOM     28  C   UNL     1      50.631  17.028  18.769  0.00  0.00    +0.111 A 
ATOM     29  O   UNL     1      47.947  15.845  16.703  0.00  0.00    -0.431 OA
ATOM     30  O   UNL     1      50.139  18.256  19.038  0.00  0.00    -0.209 OA
ATOM     31  C   UNL     1      46.414  21.301  19.886  0.00  0.00    +0.105 C 
ATOM     32  C   UNL     1      46.633  18.043  17.978  0.00  0.00    +0.211 A 
ENDROOT
BRANCH  19  20
ATOM     20  O   UNL     1      52.188  13.272  17.915  0.00  0.00    -0.298 OA
ATOM     21  C   UNL     1      51.608  12.554  16.824  0.00  0.00    +0.249 C 
ENDBRANCH  19  20
BRANCH  22  23
ATOM     23  O   UNL     1      53.642  15.070  19.403  0.00  0.00    -0.309 OA
ATOM     24  C   UNL     1      53.707  14.441  20.685  0.00  0.00    +0.235 C 
ENDBRANCH  22  23
BRANCH  25  26
ATOM     26  O   UNL     1      52.624  17.549  19.971  0.00  0.00    -0.463 OA
ATOM     27  H   UNL     1      53.543  17.636  19.683  0.00  0.00    +0.392 HD
ENDBRANCH  25  26
BRANCH  32  33
ATOM     33  O   UNL     1      45.818  17.225  17.267  0.00  0.00    -0.472 OA
ATOM     34  H   UNL     1      45.478  16.474  17.771  0.00  0.00    +0.398 HD
ENDBRANCH  32  33
BRANCH   6   5
ATOM      5  C   UNL     1      44.677  19.560  18.367  0.00  0.00    +0.123 C 
BRANCH   5   4
ATOM      1  C   UNL     1      42.229  20.777  19.061  0.00  0.00    +0.075 C 
ATOM      2  C   UNL     1      42.721  19.576  19.827  0.00  0.00    -0.116 C 
ATOM      3  C   UNL     1      41.871  18.981  20.920  0.00  0.00    +0.072 C 
ATOM      4  C   UNL     1      43.886  19.050  19.544  0.00  0.00    -0.061 C 
ENDBRANCH   5   4
ENDBRANCH   6   5
TORSDOF 6
ENDMDL
MODEL 5
REMARK VINA RESULT:      -5.9      1.762      2.460
REMARK  Name = ZINC95486190
REMARK  12 active torsions:
REMARK  status: ('A' for Active; 'I' for Inactive)
REMARK    1  A    between atoms: C1_1  and  C2_2
REMARK    2  A    between atoms: C2_2  and  C26_32
REMARK    3  A    between atoms: C3_3  and  C4_4
REMARK    4  A    between atoms: C4_4  and  C5_5
REMARK    5  A    between atoms: C10_10  and  O1_11
REMARK    6  A    between atoms: C14_16  and  O6_24
REMARK    7  A    between atoms: C15_17  and  O5_22
REMARK    8  A    between atoms: C16_18  and  O4_21
REMARK    9  A    between atoms: O5_22  and  C18_23
REMARK   10  A    between atoms: O6_24  and  C19_25
REMARK   11  A    between atoms: C22_28  and  C24_30
REMARK   12  A    between atoms: C22_28  and  C25_31
REMARK                            x       y       z     vdW  Elec       q    Type
REMARK                         _______ _______ _______ _____ _____    ______ ____
ROOT
ATOM      6  C   UNL     1      46.685  19.028  19.674  0.00  0.00    -0.130 A 
ATOM      7  C   UNL     1      45.639  18.478  20.388  0.00  0.00    +0.011 A 
ATOM      8  C   UNL     1      45.303  17.134  20.231  0.00  0.00    -0.084 A 
ATOM      9  C   UNL     1      44.152  16.586  20.975  0.00  0.00    +0.017 C 
ATOM     10  C   UNL     1      43.265  17.409  21.515  0.00  0.00    -0.005 C 
ATOM     11  C   UNL     1      43.388  18.899  21.353  0.00  0.00    -0.035 C 
ATOM     12  C   UNL     1      42.744  19.316  20.029  0.00  0.00    +0.036 C 
ATOM     13  C   UNL     1      42.659  19.592  22.505  0.00  0.00    +0.040 C 
ATOM     14  C   UNL     1      46.040  16.319  19.362  0.00  0.00    +0.183 A 
ATOM     15  C   UNL     1      47.100  16.889  18.641  0.00  0.00    -0.261 A 
ATOM     16  C   UNL     1      47.863  16.029  17.714  0.00  0.00    +0.446 A 
ATOM     17  C   UNL     1      47.261  14.715  17.409  0.00  0.00    -0.176 A 
ATOM     18  C   UNL     1      47.745  13.930  16.361  0.00  0.00    +0.037 A 
ATOM     19  C   UNL     1      47.160  12.709  16.096  0.00  0.00    +0.101 A 
ATOM     22  C   UNL     1      46.088  12.265  16.874  0.00  0.00    +0.104 A 
ATOM     25  C   UNL     1      45.605  13.039  17.918  0.00  0.00    +0.105 A 
ATOM     28  C   UNL     1      46.189  14.272  18.200  0.00  0.00    +0.111 A 
ATOM     29  O   UNL     1      48.924  16.383  17.230  0.00  0.00    -0.431 OA
ATOM     30  O   UNL     1      45.726  15.017  19.226  0.00  0.00    -0.209 OA
ATOM     31  C   UNL     1      44.854  19.326  21.357  0.00  0.00    +0.105 C 
ATOM     32  C   UNL     1      47.415  18.245  18.793  0.00  0.00    +0.211 A 
ENDROOT
BRANCH  19  20
ATOM     20  O   UNL     1      47.625  11.939  15.076  0.00  0.00    -0.298 OA
ATOM     21  C   UNL     1      48.265  12.616  13.992  0.00  0.00    +0.249 C 
ENDBRANCH  19  20
BRANCH  22  23
ATOM     23  O   UNL     1      45.515  11.062  16.606  0.00  0.00    -0.309 OA
ATOM     24  C   UNL     1      44.366  11.067  15.757  0.00  0.00    +0.235 C 
ENDBRANCH  22  23
BRANCH  25  26
ATOM     26  O   UNL     1      44.561  12.593  18.667  0.00  0.00    -0.463 OA
ATOM     27  H   UNL     1      44.807  11.935  19.332  0.00  0.00    +0.392 HD
ENDBRANCH  25  26
BRANCH  32  33
ATOM     33  O   UNL     1      48.435  18.789  18.084  0.00  0.00    -0.472 OA
ATOM     34  H   UNL     1      48.289  19.711  17.829  0.00  0.00    +0.398 HD
ENDBRANCH  32  33
BRANCH   6   5
ATOM      5  C   UNL     1      47.030  20.485  19.849  0.00  0.00    +0.123 C 
BRANCH   5   4
ATOM      1  C   UNL     1      46.093  22.660  21.380  0.00  0.00    +0.075 C 
ATOM      2  C   UNL     1      45.502  22.381  20.022  0.00  0.00    -0.116 C 
ATOM      3  C   UNL     1      44.458  23.305  19.451  0.00  0.00    +0.072 C 
ATOM      4  C   UNL     1      45.895  21.335  19.339  0.00  0.00    -0.061 C 
ENDBRANCH   5   4
ENDBRANCH   6   5
TORSDOF 6
ENDMDL
MODEL 6
REMARK VINA RESULT:      -5.6      3.178      7.594
REMARK  Name = ZINC95486190
REMARK  12 active torsions:
REMARK  status: ('A' for Active; 'I' for Inactive)
REMARK    1  A    between atoms: C1_1  and  C2_2
REMARK    2  A    between atoms: C2_2  and  C26_32
REMARK    3  A    between atoms: C3_3  and  C4_4
REMARK    4  A    between atoms: C4_4  and  C5_5
REMARK    5  A    between atoms: C10_10  and  O1_11
REMARK    6  A    between atoms: C14_16  and  O6_24
REMARK    7  A    between atoms: C15_17  and  O5_22
REMARK    8  A    between atoms: C16_18  and  O4_21
REMARK    9  A    between atoms: O5_22  and  C18_23
REMARK   10  A    between atoms: O6_24  and  C19_25
REMARK   11  A    between atoms: C22_28  and  C24_30
REMARK   12  A    between atoms: C22_28  and  C25_31
REMARK                            x       y       z     vdW  Elec       q    Type
REMARK                         _______ _______ _______ _____ _____    ______ ____
ROOT
ATOM      6  C   UNL     1      50.035  16.927  18.236  0.00  0.00    -0.130 A 
ATOM      7  C   UNL     1      48.955  16.375  17.576  0.00  0.00    +0.011 A 
ATOM      8  C   UNL     1      47.732  17.044  17.534  0.00  0.00    -0.084 A 
ATOM      9  C   UNL     1      46.585  16.409  16.858  0.00  0.00    +0.017 C 
ATOM     10  C   UNL     1      46.614  15.113  16.590  0.00  0.00    -0.005 C 
ATOM     11  C   UNL     1      47.785  14.261  16.996  0.00  0.00    -0.035 C 
ATOM     12  C   UNL     1      47.598  13.804  18.444  0.00  0.00    +0.036 C 
ATOM     13  C   UNL     1      47.853  13.033  16.087  0.00  0.00    +0.040 C 
ATOM     14  C   UNL     1      47.593  18.298  18.145  0.00  0.00    +0.183 A 
ATOM     15  C   UNL     1      48.697  18.849  18.813  0.00  0.00    -0.261 A 
ATOM     16  C   UNL     1      48.540  20.162  19.468  0.00  0.00    +0.446 A 
ATOM     17  C   UNL     1      47.153  20.650  19.611  0.00  0.00    -0.176 A 
ATOM     18  C   UNL     1      46.857  21.739  20.434  0.00  0.00    +0.037 A 
ATOM     19  C   UNL     1      45.551  22.170  20.551  0.00  0.00    +0.101 A 
ATOM     22  C   UNL     1      44.535  21.517  19.850  0.00  0.00    +0.104 A 
ATOM     25  C   UNL     1      44.823  20.438  19.030  0.00  0.00    +0.105 A 
ATOM     28  C   UNL     1      46.138  19.994  18.898  0.00  0.00    +0.111 A 
ATOM     29  O   UNL     1      49.496  20.803  19.868  0.00  0.00    -0.431 OA
ATOM     30  O   UNL     1      46.418  18.952  18.087  0.00  0.00    -0.209 OA
ATOM     31  C   UNL     1      49.090  15.044  16.880  0.00  0.00    +0.105 C 
ATOM     32  C   UNL     1      49.914  18.157  18.864  0.00  0.00    +0.211 A 
ENDROOT
BRANCH  19  20
ATOM     20  O   UNL     1      45.254  23.229  21.351  0.00  0.00    -0.298 OA
ATOM     21  C   UNL     1      45.839  24.487  21.005  0.00  0.00    +0.249 C 
ENDBRANCH  19  20
BRANCH  22  23
ATOM     23  O   UNL     1      43.251  21.945  19.973  0.00  0.00    -0.309 OA
ATOM     24  C   UNL     1      42.843  23.024  19.130  0.00  0.00    +0.235 C 
ENDBRANCH  22  23
BRANCH  25  26
ATOM     26  O   UNL     1      43.822  19.812  18.353  0.00  0.00    -0.463 OA
ATOM     27  H   UNL     1      44.125  19.291  17.597  0.00  0.00    +0.392 HD
ENDBRANCH  25  26
BRANCH  32  33
ATOM     33  O   UNL     1      50.973  18.692  19.522  0.00  0.00    -0.472 OA
ATOM     34  H   UNL     1      51.815  18.256  19.332  0.00  0.00    +0.398 HD
ENDBRANCH  32  33
BRANCH   6   5
ATOM      5  C   UNL     1      51.347  16.187  18.278  0.00  0.00    +0.123 C 
BRANCH   5   4
ATOM      1  C   UNL     1      51.872  13.419  18.141  0.00  0.00    +0.075 C 
ATOM      2  C   UNL     1      51.725  14.095  19.480  0.00  0.00    -0.116 C 
ATOM      3  C   UNL     1      51.929  13.306  20.747  0.00  0.00    +0.072 C 
ATOM      4  C   UNL     1      51.421  15.367  19.542  0.00  0.00    -0.061 C 
ENDBRANCH   5   4
ENDBRANCH   6   5
TORSDOF 6
ENDMDL
MODEL 7
REMARK VINA RESULT:      -5.6      1.781      4.963
REMARK  Name = ZINC95486190
REMARK  12 active torsions:
REMARK  status: ('A' for Active; 'I' for Inactive)
REMARK    1  A    between atoms: C1_1  and  C2_2
REMARK    2  A    between atoms: C2_2  and  C26_32
REMARK    3  A    between atoms: C3_3  and  C4_4
REMARK    4  A    between atoms: C4_4  and  C5_5
REMARK    5  A    between atoms: C10_10  and  O1_11
REMARK    6  A    between atoms: C14_16  and  O6_24
REMARK    7  A    between atoms: C15_17  and  O5_22
REMARK    8  A    between atoms: C16_18  and  O4_21
REMARK    9  A    between atoms: O5_22  and  C18_23
REMARK   10  A    between atoms: O6_24  and  C19_25
REMARK   11  A    between atoms: C22_28  and  C24_30
REMARK   12  A    between atoms: C22_28  and  C25_31
REMARK                            x       y       z     vdW  Elec       q    Type
REMARK                         _______ _______ _______ _____ _____    ______ ____
ROOT
ATOM      6  C   UNL     1      45.781  17.185  20.106  0.00  0.00    -0.130 A 
ATOM      7  C   UNL     1      46.798  18.084  19.852  0.00  0.00    +0.011 A 
ATOM      8  C   UNL     1      47.853  17.739  19.008  0.00  0.00    -0.084 A 
ATOM      9  C   UNL     1      48.948  18.704  18.790  0.00  0.00    +0.017 C 
ATOM     10  C   UNL     1      49.098  19.727  19.618  0.00  0.00    -0.005 C 
ATOM     11  C   UNL     1      48.193  19.905  20.806  0.00  0.00    -0.035 C 
ATOM     12  C   UNL     1      48.726  19.074  21.975  0.00  0.00    +0.036 C 
ATOM     13  C   UNL     1      48.174  21.381  21.207  0.00  0.00    +0.040 C 
ATOM     14  C   UNL     1      47.880  16.481  18.390  0.00  0.00    +0.183 A 
ATOM     15  C   UNL     1      46.842  15.576  18.656  0.00  0.00    -0.261 A 
ATOM     16  C   UNL     1      46.885  14.248  18.015  0.00  0.00    +0.446 A 
ATOM     17  C   UNL     1      48.165  13.880  17.377  0.00  0.00    -0.176 A 
ATOM     18  C   UNL     1      48.414  12.567  16.972  0.00  0.00    +0.037 A 
ATOM     19  C   UNL     1      49.622  12.251  16.383  0.00  0.00    +0.101 A 
ATOM     22  C   UNL     1      50.588  13.243  16.196  0.00  0.00    +0.104 A 
ATOM     25  C   UNL     1      50.345  14.548  16.595  0.00  0.00    +0.105 A 
ATOM     28  C   UNL     1      49.129  14.883  17.187  0.00  0.00    +0.111 A 
ATOM     29  O   UNL     1      45.923  13.500  18.013  0.00  0.00    -0.431 OA
ATOM     30  O   UNL     1      48.890  16.157  17.560  0.00  0.00    -0.209 OA
ATOM     31  C   UNL     1      46.772  19.455  20.476  0.00  0.00    +0.105 C 
ATOM     32  C   UNL     1      45.798  15.928  19.521  0.00  0.00    +0.211 A 
ENDROOT
BRANCH  19  20
ATOM     20  O   UNL     1      49.871  10.975  15.986  0.00  0.00    -0.298 OA
ATOM     21  C   UNL     1      49.011  10.427  14.985  0.00  0.00    +0.249 C 
ENDBRANCH  19  20
BRANCH  22  23
ATOM     23  O   UNL     1      51.776  12.924  15.619  0.00  0.00    -0.309 OA
ATOM     24  C   UNL     1      51.865  13.061  14.199  0.00  0.00    +0.235 C 
ENDBRANCH  22  23
BRANCH  25  26
ATOM     26  O   UNL     1      51.296  15.503  16.406  0.00  0.00    -0.463 OA
ATOM     27  H   UNL     1      51.311  15.872  15.513  0.00  0.00    +0.392 HD
ENDBRANCH  25  26
BRANCH  32  33
ATOM     33  O   UNL     1      44.804  15.043  19.782  0.00  0.00    -0.472 OA
ATOM     34  H   UNL     1      44.689  14.368  19.098  0.00  0.00    +0.398 HD
ENDBRANCH  32  33
BRANCH   6   5
ATOM      5  C   UNL     1      44.651  17.570  21.027  0.00  0.00    +0.123 C 
BRANCH   5   4
ATOM      1  C   UNL     1      42.599  19.009  22.321  0.00  0.00    +0.075 C 
ATOM      2  C   UNL     1      42.613  18.898  20.818  0.00  0.00    -0.116 C 
ATOM      3  C   UNL     1      41.570  19.615  20.000  0.00  0.00    +0.072 C 
ATOM      4  C   UNL     1      43.531  18.179  20.222  0.00  0.00    -0.061 C 
ENDBRANCH   5   4
ENDBRANCH   6   5
TORSDOF 6
ENDMDL
MODEL 8
REMARK VINA RESULT:      -5.4      1.985      2.792
REMARK  Name = ZINC95486190
REMARK  12 active torsions:
REMARK  status: ('A' for Active; 'I' for Inactive)
REMARK    1  A    between atoms: C1_1  and  C2_2
REMARK    2  A    between atoms: C2_2  and  C26_32
REMARK    3  A    between atoms: C3_3  and  C4_4
REMARK    4  A    between atoms: C4_4  and  C5_5
REMARK    5  A    between atoms: C10_10  and  O1_11
REMARK    6  A    between atoms: C14_16  and  O6_24
REMARK    7  A    between atoms: C15_17  and  O5_22
REMARK    8  A    between atoms: C16_18  and  O4_21
REMARK    9  A    between atoms: O5_22  and  C18_23
REMARK   10  A    between atoms: O6_24  and  C19_25
REMARK   11  A    between atoms: C22_28  and  C24_30
REMARK   12  A    between atoms: C22_28  and  C25_31
REMARK                            x       y       z     vdW  Elec       q    Type
REMARK                         _______ _______ _______ _____ _____    ______ ____
ROOT
ATOM      6  C   UNL     1      47.367  18.857  20.336  0.00  0.00    -0.130 A 
ATOM      7  C   UNL     1      46.342  18.044  20.776  0.00  0.00    +0.011 A 
ATOM      8  C   UNL     1      46.270  16.712  20.370  0.00  0.00    -0.084 A 
ATOM      9  C   UNL     1      45.139  15.880  20.823  0.00  0.00    +0.017 C 
ATOM     10  C   UNL     1      44.056  16.457  21.321  0.00  0.00    -0.005 C 
ATOM     11  C   UNL     1      43.939  17.953  21.402  0.00  0.00    -0.035 C 
ATOM     12  C   UNL     1      43.427  18.492  20.065  0.00  0.00    +0.036 C 
ATOM     13  C   UNL     1      42.946  18.322  22.505  0.00  0.00    +0.040 C 
ATOM     14  C   UNL     1      47.253  16.178  19.526  0.00  0.00    +0.183 A 
ATOM     15  C   UNL     1      48.289  17.014  19.084  0.00  0.00    -0.261 A 
ATOM     16  C   UNL     1      49.312  16.449  18.182  0.00  0.00    +0.446 A 
ATOM     17  C   UNL     1      48.997  15.133  17.592  0.00  0.00    -0.176 A 
ATOM     18  C   UNL     1      49.753  14.620  16.535  0.00  0.00    +0.037 A 
ATOM     19  C   UNL     1      49.432  13.390  16.000  0.00  0.00    +0.101 A 
ATOM     22  C   UNL     1      48.355  12.664  16.515  0.00  0.00    +0.104 A 
ATOM     25  C   UNL     1      47.603  13.167  17.565  0.00  0.00    +0.105 A 
ATOM     28  C   UNL     1      47.918  14.406  18.118  0.00  0.00    +0.111 A 
ATOM     29  O   UNL     1      50.353  17.035  17.939  0.00  0.00    -0.431 OA
ATOM     30  O   UNL     1      47.193  14.886  19.151  0.00  0.00    -0.209 OA
ATOM     31  C   UNL     1      45.293  18.587  21.713  0.00  0.00    +0.105 C 
ATOM     32  C   UNL     1      48.340  18.355  19.483  0.00  0.00    +0.211 A 
ENDROOT
BRANCH  19  20
ATOM     20  O   UNL     1      50.163  12.884  14.971  0.00  0.00    -0.298 OA
ATOM     21  C   UNL     1      51.581  13.049  15.040  0.00  0.00    +0.249 C 
ENDBRANCH  19  20
BRANCH  22  23
ATOM     23  O   UNL     1      48.042  11.454  15.981  0.00  0.00    -0.309 OA
ATOM     24  C   UNL     1      47.347  11.455  14.733  0.00  0.00    +0.235 C 
ENDBRANCH  22  23
BRANCH  25  26
ATOM     26  O   UNL     1      46.557  12.448  18.056  0.00  0.00    -0.463 OA
ATOM     27  H   UNL     1      46.771  11.526  18.251  0.00  0.00    +0.392 HD
ENDBRANCH  25  26
BRANCH  32  33
ATOM     33  O   UNL     1      49.339  19.159  19.042  0.00  0.00    -0.472 OA
ATOM     34  H   UNL     1      50.003  19.366  19.714  0.00  0.00    +0.398 HD
ENDBRANCH  32  33
BRANCH   6   5
ATOM      5  C   UNL     1      47.426  20.298  20.777  0.00  0.00    +0.123 C 
BRANCH   5   4
ATOM      1  C   UNL     1      45.487  22.059  21.822  0.00  0.00    +0.075 C 
ATOM      2  C   UNL     1      45.736  22.004  20.337  0.00  0.00    -0.116 C 
ATOM      3  C   UNL     1      44.999  22.941  19.415  0.00  0.00    +0.072 C 
ATOM      4  C   UNL     1      46.593  21.143  19.847  0.00  0.00    -0.061 C 
ENDBRANCH   5   4
ENDBRANCH   6   5
TORSDOF 6
ENDMDL
MODEL 9
REMARK VINA RESULT:      -5.4     22.025     25.066
REMARK  Name = ZINC95486190
REMARK  12 active torsions:
REMARK  status: ('A' for Active; 'I' for Inactive)
REMARK    1  A    between atoms: C1_1  and  C2_2
REMARK    2  A    between atoms: C2_2  and  C26_32
REMARK    3  A    between atoms: C3_3  and  C4_4
REMARK    4  A    between atoms: C4_4  and  C5_5
REMARK    5  A    between atoms: C10_10  and  O1_11
REMARK    6  A    between atoms: C14_16  and  O6_24
REMARK    7  A    between atoms: C15_17  and  O5_22
REMARK    8  A    between atoms: C16_18  and  O4_21
REMARK    9  A    between atoms: O5_22  and  C18_23
REMARK   10  A    between atoms: O6_24  and  C19_25
REMARK   11  A    between atoms: C22_28  and  C24_30
REMARK   12  A    between atoms: C22_28  and  C25_31
REMARK                            x       y       z     vdW  Elec       q    Type
REMARK                         _______ _______ _______ _____ _____    ______ ____
ROOT
ATOM      6  C   UNL     1      49.213  35.010   2.449  0.00  0.00    -0.130 A 
ATOM      7  C   UNL     1      49.434  34.868   1.094  0.00  0.00    +0.011 A 
ATOM      8  C   UNL     1      48.373  34.613   0.226  0.00  0.00    -0.084 A 
ATOM      9  C   UNL     1      48.647  34.423  -1.212  0.00  0.00    +0.017 C 
ATOM     10  C   UNL     1      49.882  34.172  -1.619  0.00  0.00    -0.005 C 
ATOM     11  C   UNL     1      51.013  34.039  -0.637  0.00  0.00    -0.035 C 
ATOM     12  C   UNL     1      51.056  32.603  -0.109  0.00  0.00    +0.036 C 
ATOM     13  C   UNL     1      52.333  34.354  -1.343  0.00  0.00    +0.040 C 
ATOM     14  C   UNL     1      47.064  34.520   0.719  0.00  0.00    +0.183 A 
ATOM     15  C   UNL     1      46.852  34.665   2.098  0.00  0.00    -0.261 A 
ATOM     16  C   UNL     1      45.474  34.550   2.613  0.00  0.00    +0.446 A 
ATOM     17  C   UNL     1      44.475  34.005   1.670  0.00  0.00    -0.176 A 
ATOM     18  C   UNL     1      43.212  33.608   2.113  0.00  0.00    +0.037 A 
ATOM     19  C   UNL     1      42.301  33.097   1.210  0.00  0.00    +0.101 A 
ATOM     22  C   UNL     1      42.646  32.980  -0.138  0.00  0.00    +0.104 A 
ATOM     25  C   UNL     1      43.898  33.374  -0.584  0.00  0.00    +0.105 A 
ATOM     28  C   UNL     1      44.827  33.896   0.316  0.00  0.00    +0.111 A 
ATOM     29  O   UNL     1      45.178  34.883   3.747  0.00  0.00    -0.431 OA
ATOM     30  O   UNL     1      46.039  34.293  -0.124  0.00  0.00    -0.209 OA
ATOM     31  C   UNL     1      50.828  35.000   0.536  0.00  0.00    +0.105 C 
ATOM     32  C   UNL     1      47.928  34.901   2.962  0.00  0.00    +0.211 A 
ENDROOT
BRANCH  19  20
ATOM     20  O   UNL     1      41.069  32.708   1.634  0.00  0.00    -0.298 OA
ATOM     21  C   UNL     1      40.123  33.742   1.913  0.00  0.00    +0.249 C 
ENDBRANCH  19  20
BRANCH  22  23
ATOM     23  O   UNL     1      41.746  32.473  -1.021  0.00  0.00    -0.309 OA
ATOM     24  C   UNL     1      40.952  33.412  -1.749  0.00  0.00    +0.235 C 
ENDBRANCH  22  23
BRANCH  25  26
ATOM     26  O   UNL     1      44.220  33.254  -1.900  0.00  0.00    -0.463 OA
ATOM     27  H   UNL     1      43.771  32.524  -2.349  0.00  0.00    +0.392 HD
ENDBRANCH  25  26
BRANCH  32  33
ATOM     33  O   UNL     1      47.715  35.029   4.295  0.00  0.00    -0.472 OA
ATOM     34  H   UNL     1      46.801  34.863   4.564  0.00  0.00    +0.398 HD
ENDBRANCH  32  33
BRANCH   6   5
ATOM      5  C   UNL     1      50.371  35.277   3.376  0.00  0.00    +0.123 C 
BRANCH   5   4
ATOM      1  C   UNL     1      52.549  35.254   5.169  0.00  0.00    +0.075 C 
ATOM      2  C   UNL     1      51.764  33.992   4.916  0.00  0.00    -0.116 C 
ATOM      3  C   UNL     1      52.098  32.734   5.674  0.00  0.00    +0.072 C 
ATOM      4  C   UNL     1      50.793  33.990   4.038  0.00  0.00    -0.061 C 
ENDBRANCH   5   4
ENDBRANCH   6   5
TORSDOF 6
ENDMDL
