MODEL 1
REMARK VINA RESULT:      -6.2      0.000      0.000
REMARK  Name = ZINC95485921
REMARK  7 active torsions:
REMARK  status: ('A' for Active; 'I' for Inactive)
REMARK    1  A    between atoms: C1_1  and  C2_2
REMARK    2  A    between atoms: C2_2  and  C18_23
REMARK    3  A    between atoms: C3_3  and  C4_4
REMARK    4  A    between atoms: C4_4  and  C5_5
REMARK    5  A    between atoms: C8_8  and  O5_22
REMARK    6  A    between atoms: C12_13  and  O4_21
REMARK    7  A    between atoms: C15_16  and  O3_20
REMARK                            x       y       z     vdW  Elec       q    Type
REMARK                         _______ _______ _______ _____ _____    ______ ____
ROOT
ATOM      6  C   UNL     1      43.188  19.274  20.210  0.00  0.00    -0.106 A 
ATOM      7  C   UNL     1      41.935  19.234  19.635  0.00  0.00    +0.108 A 
ATOM      8  C   UNL     1      41.372  20.370  19.081  0.00  0.00    -0.029 A 
ATOM      9  C   UNL     1      42.065  21.570  19.102  0.00  0.00    +0.196 A 
ATOM     12  C   UNL     1      43.332  21.620  19.691  0.00  0.00    -0.255 A 
ATOM     13  C   UNL     1      44.096  22.882  19.752  0.00  0.00    +0.440 A 
ATOM     14  O   UNL     1      43.774  23.864  19.107  0.00  0.00    -0.416 OA
ATOM     15  C   UNL     1      45.265  22.884  20.657  0.00  0.00    -0.245 A 
ATOM     16  C   UNL     1      45.900  24.077  21.016  0.00  0.00    +0.193 A 
ATOM     19  C   UNL     1      46.988  24.041  21.871  0.00  0.00    -0.013 A 
ATOM     20  C   UNL     1      47.444  22.830  22.365  0.00  0.00    +0.088 A 
ATOM     21  C   UNL     1      46.826  21.643  22.011  0.00  0.00    +0.075 A 
ATOM     24  C   UNL     1      45.730  21.654  21.150  0.00  0.00    +0.147 A 
ATOM     25  O   UNL     1      45.133  20.495  20.804  0.00  0.00    -0.211 OA
ATOM     26  C   UNL     1      43.905  20.464  20.248  0.00  0.00    +0.172 A 
ENDROOT
BRANCH   9  10
ATOM     10  O   UNL     1      41.519  22.686  18.556  0.00  0.00    -0.476 OA
ATOM     11  H   UNL     1      41.149  22.551  17.674  0.00  0.00    +0.399 HD
ENDBRANCH   9  10
BRANCH  16  17
ATOM     17  O   UNL     1      45.453  25.264  20.529  0.00  0.00    -0.478 OA
ATOM     18  H   UNL     1      45.047  25.202  19.654  0.00  0.00    +0.403 HD
ENDBRANCH  16  17
BRANCH  21  22
ATOM     22  O   UNL     1      47.290  20.464  22.505  0.00  0.00    -0.478 OA
ATOM     23  H   UNL     1      46.810  20.147  23.284  0.00  0.00    +0.392 HD
ENDBRANCH  21  22
BRANCH   6   5
ATOM      5  C   UNL     1      43.780  18.023  20.806  0.00  0.00    +0.126 C 
BRANCH   5   4
ATOM      1  C   UNL     1      44.773  15.428  21.291  0.00  0.00    +0.074 C 
ATOM      2  C   UNL     1      45.172  16.169  20.041  0.00  0.00    -0.128 C 
ATOM      3  C   UNL     1      46.156  15.551  19.080  0.00  0.00    +0.074 C 
ATOM      4  C   UNL     1      44.665  17.351  19.788  0.00  0.00    -0.051 C 
ENDBRANCH   5   4
ENDBRANCH   6   5
TORSDOF 5
ENDMDL
MODEL 2
REMARK VINA RESULT:      -6.1     21.080     23.174
REMARK  Name = ZINC95485921
REMARK  7 active torsions:
REMARK  status: ('A' for Active; 'I' for Inactive)
REMARK    1  A    between atoms: C1_1  and  C2_2
REMARK    2  A    between atoms: C2_2  and  C18_23
REMARK    3  A    between atoms: C3_3  and  C4_4
REMARK    4  A    between atoms: C4_4  and  C5_5
REMARK    5  A    between atoms: C8_8  and  O5_22
REMARK    6  A    between atoms: C12_13  and  O4_21
REMARK    7  A    between atoms: C15_16  and  O3_20
REMARK                            x       y       z     vdW  Elec       q    Type
REMARK                         _______ _______ _______ _____ _____    ______ ____
ROOT
ATOM      6  C   UNL     1      53.989  33.331   5.883  0.00  0.00    -0.106 A 
ATOM      7  C   UNL     1      53.155  33.944   6.796  0.00  0.00    +0.108 A 
ATOM      8  C   UNL     1      51.808  34.111   6.525  0.00  0.00    -0.029 A 
ATOM      9  C   UNL     1      51.280  33.666   5.324  0.00  0.00    +0.196 A 
ATOM     12  C   UNL     1      52.122  33.052   4.391  0.00  0.00    -0.255 A 
ATOM     13  C   UNL     1      51.604  32.581   3.091  0.00  0.00    +0.440 A 
ATOM     14  O   UNL     1      50.410  32.494   2.864  0.00  0.00    -0.416 OA
ATOM     15  C   UNL     1      52.624  32.238   2.077  0.00  0.00    -0.245 A 
ATOM     16  C   UNL     1      52.276  32.049   0.735  0.00  0.00    +0.193 A 
ATOM     19  C   UNL     1      53.260  31.735  -0.187  0.00  0.00    -0.013 A 
ATOM     20  C   UNL     1      54.578  31.609   0.219  0.00  0.00    +0.088 A 
ATOM     21  C   UNL     1      54.931  31.789   1.545  0.00  0.00    +0.075 A 
ATOM     24  C   UNL     1      53.959  32.103   2.493  0.00  0.00    +0.147 A 
ATOM     25  O   UNL     1      54.306  32.272   3.784  0.00  0.00    -0.211 OA
ATOM     26  C   UNL     1      53.488  32.878   4.669  0.00  0.00    +0.172 A 
ENDROOT
BRANCH   9  10
ATOM     10  O   UNL     1      49.959  33.823   5.055  0.00  0.00    -0.476 OA
ATOM     11  H   UNL     1      49.520  33.015   4.758  0.00  0.00    +0.399 HD
ENDBRANCH   9  10
BRANCH  16  17
ATOM     17  O   UNL     1      50.983  32.171   0.340  0.00  0.00    -0.478 OA
ATOM     18  H   UNL     1      50.339  31.975   1.034  0.00  0.00    +0.403 HD
ENDBRANCH  16  17
BRANCH  21  22
ATOM     22  O   UNL     1      56.231  31.658   1.924  0.00  0.00    -0.478 OA
ATOM     23  H   UNL     1      56.868  31.894   1.234  0.00  0.00    +0.392 HD
ENDBRANCH  21  22
BRANCH   6   5
ATOM      5  C   UNL     1      55.452  33.160   6.202  0.00  0.00    +0.126 C 
BRANCH   5   4
ATOM      1  C   UNL     1      57.915  32.810   4.873  0.00  0.00    +0.074 C 
ATOM      2  C   UNL     1      57.390  34.197   5.140  0.00  0.00    -0.128 C 
ATOM      3  C   UNL     1      58.213  35.401   4.755  0.00  0.00    +0.074 C 
ATOM      4  C   UNL     1      56.219  34.358   5.705  0.00  0.00    -0.051 C 
ENDBRANCH   5   4
ENDBRANCH   6   5
TORSDOF 5
ENDMDL
MODEL 3
REMARK VINA RESULT:      -6.1      3.165      7.151
REMARK  Name = ZINC95485921
REMARK  7 active torsions:
REMARK  status: ('A' for Active; 'I' for Inactive)
REMARK    1  A    between atoms: C1_1  and  C2_2
REMARK    2  A    between atoms: C2_2  and  C18_23
REMARK    3  A    between atoms: C3_3  and  C4_4
REMARK    4  A    between atoms: C4_4  and  C5_5
REMARK    5  A    between atoms: C8_8  and  O5_22
REMARK    6  A    between atoms: C12_13  and  O4_21
REMARK    7  A    between atoms: C15_16  and  O3_20
REMARK                            x       y       z     vdW  Elec       q    Type
REMARK                         _______ _______ _______ _____ _____    ______ ____
ROOT
ATOM      6  C   UNL     1      44.303  19.156  19.879  0.00  0.00    -0.106 A 
ATOM      7  C   UNL     1      43.448  19.372  20.940  0.00  0.00    +0.108 A 
ATOM      8  C   UNL     1      43.137  18.350  21.821  0.00  0.00    -0.029 A 
ATOM      9  C   UNL     1      43.684  17.089  21.642  0.00  0.00    +0.196 A 
ATOM     12  C   UNL     1      44.545  16.861  20.564  0.00  0.00    -0.255 A 
ATOM     13  C   UNL     1      45.134  15.528  20.327  0.00  0.00    +0.440 A 
ATOM     14  O   UNL     1      45.087  14.643  21.163  0.00  0.00    -0.416 OA
ATOM     15  C   UNL     1      45.767  15.330  19.006  0.00  0.00    -0.245 A 
ATOM     16  C   UNL     1      46.109  14.051  18.552  0.00  0.00    +0.193 A 
ATOM     19  C   UNL     1      46.695  13.904  17.307  0.00  0.00    -0.013 A 
ATOM     20  C   UNL     1      46.941  15.016  16.518  0.00  0.00    +0.088 A 
ATOM     21  C   UNL     1      46.611  16.284  16.960  0.00  0.00    +0.075 A 
ATOM     24  C   UNL     1      46.022  16.459  18.212  0.00  0.00    +0.147 A 
ATOM     25  O   UNL     1      45.706  17.697  18.641  0.00  0.00    -0.211 OA
ATOM     26  C   UNL     1      44.863  17.901  19.674  0.00  0.00    +0.172 A 
ENDROOT
BRANCH   9  10
ATOM     10  O   UNL     1      43.386  16.085  22.505  0.00  0.00    -0.476 OA
ATOM     11  H   UNL     1      44.162  15.665  22.900  0.00  0.00    +0.399 HD
ENDBRANCH   9  10
BRANCH  16  17
ATOM     17  O   UNL     1      45.870  12.963  19.328  0.00  0.00    -0.478 OA
ATOM     18  H   UNL     1      46.526  12.823  20.024  0.00  0.00    +0.403 HD
ENDBRANCH  16  17
BRANCH  21  22
ATOM     22  O   UNL     1      46.862  17.364  16.171  0.00  0.00    -0.478 OA
ATOM     23  H   UNL     1      47.716  17.330  15.719  0.00  0.00    +0.392 HD
ENDBRANCH  21  22
BRANCH   6   5
ATOM      5  C   UNL     1      44.627  20.285  18.934  0.00  0.00    +0.126 C 
BRANCH   5   4
ATOM      1  C   UNL     1      43.262  22.687  19.503  0.00  0.00    +0.074 C 
ATOM      2  C   UNL     1      44.707  22.525  19.900  0.00  0.00    -0.128 C 
ATOM      3  C   UNL     1      45.444  23.672  20.544  0.00  0.00    +0.074 C 
ATOM      4  C   UNL     1      45.323  21.388  19.688  0.00  0.00    -0.051 C 
ENDBRANCH   5   4
ENDBRANCH   6   5
TORSDOF 5
ENDMDL
MODEL 4
REMARK VINA RESULT:      -5.9      2.773      5.684
REMARK  Name = ZINC95485921
REMARK  7 active torsions:
REMARK  status: ('A' for Active; 'I' for Inactive)
REMARK    1  A    between atoms: C1_1  and  C2_2
REMARK    2  A    between atoms: C2_2  and  C18_23
REMARK    3  A    between atoms: C3_3  and  C4_4
REMARK    4  A    between atoms: C4_4  and  C5_5
REMARK    5  A    between atoms: C8_8  and  O5_22
REMARK    6  A    between atoms: C12_13  and  O4_21
REMARK    7  A    between atoms: C15_16  and  O3_20
REMARK                            x       y       z     vdW  Elec       q    Type
REMARK                         _______ _______ _______ _____ _____    ______ ____
ROOT
ATOM      6  C   UNL     1      44.232  20.761  19.500  0.00  0.00    -0.106 A 
ATOM      7  C   UNL     1      43.994  21.731  20.452  0.00  0.00    +0.108 A 
ATOM      8  C   UNL     1      45.038  22.309  21.153  0.00  0.00    -0.029 A 
ATOM      9  C   UNL     1      46.343  21.913  20.906  0.00  0.00    +0.196 A 
ATOM     12  C   UNL     1      46.591  20.925  19.948  0.00  0.00    -0.255 A 
ATOM     13  C   UNL     1      47.964  20.460  19.668  0.00  0.00    +0.440 A 
ATOM     14  O   UNL     1      48.944  21.058  20.077  0.00  0.00    -0.416 OA
ATOM     15  C   UNL     1      48.075  19.216  18.877  0.00  0.00    -0.245 A 
ATOM     16  C   UNL     1      49.288  18.526  18.780  0.00  0.00    +0.193 A 
ATOM     19  C   UNL     1      49.352  17.361  18.035  0.00  0.00    -0.013 A 
ATOM     20  C   UNL     1      48.222  16.885  17.391  0.00  0.00    +0.088 A 
ATOM     21  C   UNL     1      47.019  17.564  17.476  0.00  0.00    +0.075 A 
ATOM     24  C   UNL     1      46.929  18.740  18.219  0.00  0.00    +0.147 A 
ATOM     25  O   UNL     1      45.757  19.401  18.295  0.00  0.00    -0.211 OA
ATOM     26  C   UNL     1      45.530  20.343  19.234  0.00  0.00    +0.172 A 
ENDROOT
BRANCH   9  10
ATOM     10  O   UNL     1      47.371  22.479  21.587  0.00  0.00    -0.476 OA
ATOM     11  H   UNL     1      47.177  23.362  21.928  0.00  0.00    +0.399 HD
ENDBRANCH   9  10
BRANCH  16  17
ATOM     17  O   UNL     1      50.395  18.995  19.411  0.00  0.00    -0.478 OA
ATOM     18  H   UNL     1      50.244  19.254  20.331  0.00  0.00    +0.403 HD
ENDBRANCH  16  17
BRANCH  21  22
ATOM     22  O   UNL     1      45.921  17.081  16.835  0.00  0.00    -0.478 OA
ATOM     23  H   UNL     1      45.799  17.435  15.943  0.00  0.00    +0.392 HD
ENDBRANCH  21  22
BRANCH   6   5
ATOM      5  C   UNL     1      43.077  20.148  18.749  0.00  0.00    +0.126 C 
BRANCH   5   4
ATOM      1  C   UNL     1      40.619  19.328  17.637  0.00  0.00    +0.074 C 
ATOM      2  C   UNL     1      40.699  20.602  18.438  0.00  0.00    -0.128 C 
ATOM      3  C   UNL     1      39.479  21.474  18.590  0.00  0.00    +0.074 C 
ATOM      4  C   UNL     1      41.829  20.952  19.002  0.00  0.00    -0.051 C 
ENDBRANCH   5   4
ENDBRANCH   6   5
TORSDOF 5
ENDMDL
MODEL 5
REMARK VINA RESULT:      -5.9      5.962      9.728
REMARK  Name = ZINC95485921
REMARK  7 active torsions:
REMARK  status: ('A' for Active; 'I' for Inactive)
REMARK    1  A    between atoms: C1_1  and  C2_2
REMARK    2  A    between atoms: C2_2  and  C18_23
REMARK    3  A    between atoms: C3_3  and  C4_4
REMARK    4  A    between atoms: C4_4  and  C5_5
REMARK    5  A    between atoms: C8_8  and  O5_22
REMARK    6  A    between atoms: C12_13  and  O4_21
REMARK    7  A    between atoms: C15_16  and  O3_20
REMARK                            x       y       z     vdW  Elec       q    Type
REMARK                         _______ _______ _______ _____ _____    ______ ____
ROOT
ATOM      6  C   UNL     1      49.548  17.015  17.490  0.00  0.00    -0.106 A 
ATOM      7  C   UNL     1      48.875  18.040  18.121  0.00  0.00    +0.108 A 
ATOM      8  C   UNL     1      47.565  17.878  18.538  0.00  0.00    -0.029 A 
ATOM      9  C   UNL     1      46.911  16.676  18.320  0.00  0.00    +0.196 A 
ATOM     12  C   UNL     1      47.585  15.635  17.674  0.00  0.00    -0.255 A 
ATOM     13  C   UNL     1      46.918  14.345  17.405  0.00  0.00    +0.440 A 
ATOM     14  O   UNL     1      45.856  14.047  17.923  0.00  0.00    -0.416 OA
ATOM     15  C   UNL     1      47.611  13.448  16.457  0.00  0.00    -0.245 A 
ATOM     16  C   UNL     1      46.964  12.336  15.908  0.00  0.00    +0.193 A 
ATOM     19  C   UNL     1      47.642  11.521  15.019  0.00  0.00    -0.013 A 
ATOM     20  C   UNL     1      48.954  11.807  14.676  0.00  0.00    +0.088 A 
ATOM     21  C   UNL     1      49.605  12.902  15.218  0.00  0.00    +0.075 A 
ATOM     24  C   UNL     1      48.943  13.736  16.118  0.00  0.00    +0.147 A 
ATOM     25  O   UNL     1      49.582  14.798  16.646  0.00  0.00    -0.211 OA
ATOM     26  C   UNL     1      48.916  15.800  17.256  0.00  0.00    +0.172 A 
ENDROOT
BRANCH   9  10
ATOM     10  O   UNL     1      45.628  16.510  18.731  0.00  0.00    -0.476 OA
ATOM     11  H   UNL     1      45.546  16.164  19.630  0.00  0.00    +0.399 HD
ENDBRANCH   9  10
BRANCH  16  17
ATOM     17  O   UNL     1      45.679  12.056  16.247  0.00  0.00    -0.478 OA
ATOM     18  H   UNL     1      45.188  11.576  15.566  0.00  0.00    +0.403 HD
ENDBRANCH  16  17
BRANCH  21  22
ATOM     22  O   UNL     1      50.893  13.164  14.870  0.00  0.00    -0.478 OA
ATOM     23  H   UNL     1      50.987  13.855  14.200  0.00  0.00    +0.392 HD
ENDBRANCH  21  22
BRANCH   6   5
ATOM      5  C   UNL     1      50.975  17.216  17.046  0.00  0.00    +0.126 C 
BRANCH   5   4
ATOM      1  C   UNL     1      52.589  19.288  18.073  0.00  0.00    +0.074 C 
ATOM      2  C   UNL     1      51.794  19.503  16.810  0.00  0.00    -0.128 C 
ATOM      3  C   UNL     1      51.810  20.849  16.130  0.00  0.00    +0.074 C 
ATOM      4  C   UNL     1      51.091  18.521  16.303  0.00  0.00    -0.051 C 
ENDBRANCH   5   4
ENDBRANCH   6   5
TORSDOF 5
ENDMDL
MODEL 6
REMARK VINA RESULT:      -5.8      4.789      6.976
REMARK  Name = ZINC95485921
REMARK  7 active torsions:
REMARK  status: ('A' for Active; 'I' for Inactive)
REMARK    1  A    between atoms: C1_1  and  C2_2
REMARK    2  A    between atoms: C2_2  and  C18_23
REMARK    3  A    between atoms: C3_3  and  C4_4
REMARK    4  A    between atoms: C4_4  and  C5_5
REMARK    5  A    between atoms: C8_8  and  O5_22
REMARK    6  A    between atoms: C12_13  and  O4_21
REMARK    7  A    between atoms: C15_16  and  O3_20
REMARK                            x       y       z     vdW  Elec       q    Type
REMARK                         _______ _______ _______ _____ _____    ______ ____
ROOT
ATOM      6  C   UNL     1      46.763  17.302  19.020  0.00  0.00    -0.106 A 
ATOM      7  C   UNL     1      46.073  16.177  18.618  0.00  0.00    +0.108 A 
ATOM      8  C   UNL     1      46.641  15.272  17.738  0.00  0.00    -0.029 A 
ATOM      9  C   UNL     1      47.917  15.491  17.245  0.00  0.00    +0.196 A 
ATOM     12  C   UNL     1      48.620  16.633  17.642  0.00  0.00    -0.255 A 
ATOM     13  C   UNL     1      49.974  16.913  17.125  0.00  0.00    +0.440 A 
ATOM     14  O   UNL     1      50.624  16.074  16.527  0.00  0.00    -0.416 OA
ATOM     15  C   UNL     1      50.484  18.280  17.364  0.00  0.00    -0.245 A 
ATOM     16  C   UNL     1      51.617  18.756  16.696  0.00  0.00    +0.193 A 
ATOM     19  C   UNL     1      52.062  20.044  16.941  0.00  0.00    -0.013 A 
ATOM     20  C   UNL     1      51.389  20.852  17.843  0.00  0.00    +0.088 A 
ATOM     21  C   UNL     1      50.270  20.388  18.512  0.00  0.00    +0.075 A 
ATOM     24  C   UNL     1      49.804  19.094  18.284  0.00  0.00    +0.147 A 
ATOM     25  O   UNL     1      48.717  18.644  18.942  0.00  0.00    -0.211 OA
ATOM     26  C   UNL     1      48.043  17.548  18.539  0.00  0.00    +0.172 A 
ENDROOT
BRANCH   9  10
ATOM     10  O   UNL     1      48.481  14.604  16.386  0.00  0.00    -0.476 OA
ATOM     11  H   UNL     1      47.893  14.321  15.673  0.00  0.00    +0.399 HD
ENDBRANCH   9  10
BRANCH  16  17
ATOM     17  O   UNL     1      52.277  17.962  15.815  0.00  0.00    -0.478 OA
ATOM     18  H   UNL     1      53.164  17.707  16.102  0.00  0.00    +0.403 HD
ENDBRANCH  16  17
BRANCH  21  22
ATOM     22  O   UNL     1      49.625  21.197  19.394  0.00  0.00    -0.478 OA
ATOM     23  H   UNL     1      48.660  21.165  19.325  0.00  0.00    +0.392 HD
ENDBRANCH  21  22
BRANCH   6   5
ATOM      5  C   UNL     1      46.123  18.272  19.979  0.00  0.00    +0.126 C 
BRANCH   5   4
ATOM      1  C   UNL     1      45.552  20.784  18.831  0.00  0.00    +0.074 C 
ATOM      2  C   UNL     1      44.449  19.777  19.036  0.00  0.00    -0.128 C 
ATOM      3  C   UNL     1      43.027  20.137  18.688  0.00  0.00    +0.074 C 
ATOM      4  C   UNL     1      44.725  18.590  19.516  0.00  0.00    -0.051 C 
ENDBRANCH   5   4
ENDBRANCH   6   5
TORSDOF 5
ENDMDL
MODEL 7
REMARK VINA RESULT:      -5.7     20.686     22.708
REMARK  Name = ZINC95485921
REMARK  7 active torsions:
REMARK  status: ('A' for Active; 'I' for Inactive)
REMARK    1  A    between atoms: C1_1  and  C2_2
REMARK    2  A    between atoms: C2_2  and  C18_23
REMARK    3  A    between atoms: C3_3  and  C4_4
REMARK    4  A    between atoms: C4_4  and  C5_5
REMARK    5  A    between atoms: C8_8  and  O5_22
REMARK    6  A    between atoms: C12_13  and  O4_21
REMARK    7  A    between atoms: C15_16  and  O3_20
REMARK                            x       y       z     vdW  Elec       q    Type
REMARK                         _______ _______ _______ _____ _____    ______ ____
ROOT
ATOM      6  C   UNL     1      51.544  32.973   4.631  0.00  0.00    -0.106 A 
ATOM      7  C   UNL     1      50.729  33.450   5.636  0.00  0.00    +0.108 A 
ATOM      8  C   UNL     1      51.260  34.128   6.720  0.00  0.00    -0.029 A 
ATOM      9  C   UNL     1      52.628  34.331   6.809  0.00  0.00    +0.196 A 
ATOM     12  C   UNL     1      53.462  33.843   5.798  0.00  0.00    -0.255 A 
ATOM     13  C   UNL     1      54.926  34.021   5.864  0.00  0.00    +0.440 A 
ATOM     14  O   UNL     1      55.449  34.781   6.659  0.00  0.00    -0.416 OA
ATOM     15  C   UNL     1      55.717  33.206   4.917  0.00  0.00    -0.245 A 
ATOM     16  C   UNL     1      57.102  33.072   5.060  0.00  0.00    +0.193 A 
ATOM     19  C   UNL     1      57.809  32.296   4.157  0.00  0.00    -0.013 A 
ATOM     20  C   UNL     1      57.147  31.660   3.120  0.00  0.00    +0.088 A 
ATOM     21  C   UNL     1      55.778  31.791   2.967  0.00  0.00    +0.075 A 
ATOM     24  C   UNL     1      55.044  32.569   3.861  0.00  0.00    +0.147 A 
ATOM     25  O   UNL     1      53.711  32.699   3.706  0.00  0.00    -0.211 OA
ATOM     26  C   UNL     1      52.920  33.159   4.696  0.00  0.00    +0.172 A 
ENDROOT
BRANCH   9  10
ATOM     10  O   UNL     1      53.154  34.998   7.867  0.00  0.00    -0.476 OA
ATOM     11  H   UNL     1      53.569  35.839   7.633  0.00  0.00    +0.399 HD
ENDBRANCH   9  10
BRANCH  16  17
ATOM     17  O   UNL     1      57.749  33.698   6.076  0.00  0.00    -0.478 OA
ATOM     18  H   UNL     1      57.586  34.650   6.120  0.00  0.00    +0.403 HD
ENDBRANCH  16  17
BRANCH  21  22
ATOM     22  O   UNL     1      55.147  31.160   1.940  0.00  0.00    -0.478 OA
ATOM     23  H   UNL     1      55.720  30.572   1.428  0.00  0.00    +0.392 HD
ENDBRANCH  21  22
BRANCH   6   5
ATOM      5  C   UNL     1      50.942  32.239   3.461  0.00  0.00    +0.126 C 
BRANCH   5   4
ATOM      1  C   UNL     1      51.711  31.913   0.767  0.00  0.00    +0.074 C 
ATOM      2  C   UNL     1      50.898  33.112   1.182  0.00  0.00    -0.128 C 
ATOM      3  C   UNL     1      50.551  34.174   0.168  0.00  0.00    +0.074 C 
ATOM      4  C   UNL     1      50.492  33.233   2.422  0.00  0.00    -0.051 C 
ENDBRANCH   5   4
ENDBRANCH   6   5
TORSDOF 5
ENDMDL
MODEL 8
REMARK VINA RESULT:      -5.6      1.781      4.272
REMARK  Name = ZINC95485921
REMARK  7 active torsions:
REMARK  status: ('A' for Active; 'I' for Inactive)
REMARK    1  A    between atoms: C1_1  and  C2_2
REMARK    2  A    between atoms: C2_2  and  C18_23
REMARK    3  A    between atoms: C3_3  and  C4_4
REMARK    4  A    between atoms: C4_4  and  C5_5
REMARK    5  A    between atoms: C8_8  and  O5_22
REMARK    6  A    between atoms: C12_13  and  O4_21
REMARK    7  A    between atoms: C15_16  and  O3_20
REMARK                            x       y       z     vdW  Elec       q    Type
REMARK                         _______ _______ _______ _____ _____    ______ ____
ROOT
ATOM      6  C   UNL     1      45.611  17.942  20.584  0.00  0.00    -0.106 A 
ATOM      7  C   UNL     1      46.981  17.919  20.749  0.00  0.00    +0.108 A 
ATOM      8  C   UNL     1      47.716  19.092  20.746  0.00  0.00    -0.029 A 
ATOM      9  C   UNL     1      47.079  20.310  20.571  0.00  0.00    +0.196 A 
ATOM     12  C   UNL     1      45.692  20.340  20.394  0.00  0.00    -0.255 A 
ATOM     13  C   UNL     1      44.977  21.615  20.185  0.00  0.00    +0.440 A 
ATOM     14  O   UNL     1      45.508  22.693  20.381  0.00  0.00    -0.416 OA
ATOM     15  C   UNL     1      43.583  21.500  19.706  0.00  0.00    -0.245 A 
ATOM     16  C   UNL     1      42.894  22.611  19.209  0.00  0.00    +0.193 A 
ATOM     19  C   UNL     1      41.592  22.464  18.764  0.00  0.00    -0.013 A 
ATOM     20  C   UNL     1      40.976  21.224  18.813  0.00  0.00    +0.088 A 
ATOM     21  C   UNL     1      41.647  20.120  19.309  0.00  0.00    +0.075 A 
ATOM     24  C   UNL     1      42.959  20.243  19.765  0.00  0.00    +0.147 A 
ATOM     25  O   UNL     1      43.607  19.166  20.251  0.00  0.00    -0.211 OA
ATOM     26  C   UNL     1      44.947  19.149  20.403  0.00  0.00    +0.172 A 
ENDROOT
BRANCH   9  10
ATOM     10  O   UNL     1      47.794  21.464  20.571  0.00  0.00    -0.476 OA
ATOM     11  H   UNL     1      47.765  21.943  21.409  0.00  0.00    +0.399 HD
ENDBRANCH   9  10
BRANCH  16  17
ATOM     17  O   UNL     1      43.499  23.826  19.163  0.00  0.00    -0.478 OA
ATOM     18  H   UNL     1      43.238  24.423  19.879  0.00  0.00    +0.403 HD
ENDBRANCH  16  17
BRANCH  21  22
ATOM     22  O   UNL     1      41.024  18.911  19.350  0.00  0.00    -0.478 OA
ATOM     23  H   UNL     1      40.976  18.464  18.494  0.00  0.00    +0.392 HD
ENDBRANCH  21  22
BRANCH   6   5
ATOM      5  C   UNL     1      44.834  16.651  20.593  0.00  0.00    +0.126 C 
BRANCH   5   4
ATOM      1  C   UNL     1      45.305  13.922  21.123  0.00  0.00    +0.074 C 
ATOM      2  C   UNL     1      45.619  14.494  19.764  0.00  0.00    -0.128 C 
ATOM      3  C   UNL     1      46.248  13.622  18.707  0.00  0.00    +0.074 C 
ATOM      4  C   UNL     1      45.345  15.748  19.501  0.00  0.00    -0.051 C 
ENDBRANCH   5   4
ENDBRANCH   6   5
TORSDOF 5
ENDMDL
MODEL 9
REMARK VINA RESULT:      -5.5      4.689      6.824
REMARK  Name = ZINC95485921
REMARK  7 active torsions:
REMARK  status: ('A' for Active; 'I' for Inactive)
REMARK    1  A    between atoms: C1_1  and  C2_2
REMARK    2  A    between atoms: C2_2  and  C18_23
REMARK    3  A    between atoms: C3_3  and  C4_4
REMARK    4  A    between atoms: C4_4  and  C5_5
REMARK    5  A    between atoms: C8_8  and  O5_22
REMARK    6  A    between atoms: C12_13  and  O4_21
REMARK    7  A    between atoms: C15_16  and  O3_20
REMARK                            x       y       z     vdW  Elec       q    Type
REMARK                         _______ _______ _______ _____ _____    ______ ____
ROOT
ATOM      6  C   UNL     1      46.710  17.037  18.908  0.00  0.00    -0.106 A 
ATOM      7  C   UNL     1      46.136  15.867  18.454  0.00  0.00    +0.108 A 
ATOM      8  C   UNL     1      46.826  15.023  17.600  0.00  0.00    -0.029 A 
ATOM      9  C   UNL     1      48.108  15.349  17.188  0.00  0.00    +0.196 A 
ATOM     12  C   UNL     1      48.692  16.537  17.638  0.00  0.00    -0.255 A 
ATOM     13  C   UNL     1      50.048  16.931  17.207  0.00  0.00    +0.440 A 
ATOM     14  O   UNL     1      50.797  16.155  16.640  0.00  0.00    -0.416 OA
ATOM     15  C   UNL     1      50.433  18.330  17.491  0.00  0.00    -0.245 A 
ATOM     16  C   UNL     1      51.562  18.904  16.898  0.00  0.00    +0.193 A 
ATOM     19  C   UNL     1      51.888  20.219  17.183  0.00  0.00    -0.013 A 
ATOM     20  C   UNL     1      51.101  20.958  18.051  0.00  0.00    +0.088 A 
ATOM     21  C   UNL     1      49.985  20.397  18.646  0.00  0.00    +0.075 A 
ATOM     24  C   UNL     1      49.637  19.074  18.377  0.00  0.00    +0.147 A 
ATOM     25  O   UNL     1      48.552  18.530  18.963  0.00  0.00    -0.211 OA
ATOM     26  C   UNL     1      47.993  17.390  18.508  0.00  0.00    +0.172 A 
ENDROOT
BRANCH   9  10
ATOM     10  O   UNL     1      48.790  14.523  16.354  0.00  0.00    -0.476 OA
ATOM     11  H   UNL     1      49.539  14.078  16.771  0.00  0.00    +0.399 HD
ENDBRANCH   9  10
BRANCH  16  17
ATOM     17  O   UNL     1      52.334  18.178  16.049  0.00  0.00    -0.478 OA
ATOM     18  H   UNL     1      51.876  17.430  15.643  0.00  0.00    +0.403 HD
ENDBRANCH  16  17
BRANCH  21  22
ATOM     22  O   UNL     1      49.226  21.139  19.497  0.00  0.00    -0.478 OA
ATOM     23  H   UNL     1      49.480  22.071  19.540  0.00  0.00    +0.392 HD
ENDBRANCH  21  22
BRANCH   6   5
ATOM      5  C   UNL     1      45.939  17.938  19.838  0.00  0.00    +0.126 C 
BRANCH   5   4
ATOM      1  C   UNL     1      44.512  19.065  21.994  0.00  0.00    +0.074 C 
ATOM      2  C   UNL     1      44.229  17.651  21.555  0.00  0.00    -0.128 C 
ATOM      3  C   UNL     1      43.228  16.814  22.311  0.00  0.00    +0.074 C 
ATOM      4  C   UNL     1      44.851  17.149  20.517  0.00  0.00    -0.051 C 
ENDBRANCH   5   4
ENDBRANCH   6   5
TORSDOF 5
ENDMDL
