MODEL 1
REMARK VINA RESULT:      -6.3      0.000      0.000
REMARK  Name = ZINC95485996
REMARK  15 active torsions:
REMARK  status: ('A' for Active; 'I' for Inactive)
REMARK    1  A    between atoms: C1_1  and  C2_2
REMARK    2  A    between atoms: C2_2  and  O2_4
REMARK    3  A    between atoms: O2_4  and  C3_5
REMARK    4  A    between atoms: C5_9  and  O6_34
REMARK    5  A    between atoms: C7_12  and  C21_29
REMARK    6  A    between atoms: C8_13  and  O3_15
REMARK    7  A    between atoms: O3_15  and  C9_16
REMARK    8  A    between atoms: C9_16  and  C10_17
REMARK    9  A    between atoms: C19_26  and  C20_27
REMARK   10  A    between atoms: C19_26  and  O4_28
REMARK   11  A    between atoms: C22_31  and  C23_32
REMARK   12  A    between atoms: C22_31  and  C24_33
REMARK   13  A    between atoms: O6_34  and  C25_35
REMARK   14  A    between atoms: C28_39  and  C31_44
REMARK   15  A    between atoms: N1_42  and  C30_43
REMARK                            x       y       z     vdW  Elec       q    Type
REMARK                         _______ _______ _______ _____ _____    ______ ____
ROOT
ATOM      4  C   UNL     1      49.984  17.254  17.366  0.00  0.00    +0.165 C 
ATOM      5  C   UNL     1      50.338  15.906  17.990  0.00  0.00    -0.031 C 
ATOM      6  C   UNL     1      49.080  15.001  17.762  0.00  0.00    +0.142 C 
ATOM     19  C   UNL     1      48.133  15.649  18.793  0.00  0.00    +0.162 C 
ATOM     20  O   UNL     1      48.968  16.047  19.909  0.00  0.00    -0.326 OA
ATOM     21  C   UNL     1      47.583  16.938  18.186  0.00  0.00    -0.051 C 
ATOM     22  C   UNL     1      46.846  16.719  16.861  0.00  0.00    +0.047 C 
ATOM     23  C   UNL     1      46.622  17.592  19.187  0.00  0.00    +0.056 C 
ATOM     24  C   UNL     1      45.489  16.624  19.524  0.00  0.00    +0.007 C 
ATOM     25  C   UNL     1      46.055  15.376  20.191  0.00  0.00    +0.001 C 
ATOM     26  C   UNL     1      47.087  14.684  19.300  0.00  0.00    +0.156 C 
ATOM     29  C   UNL     1      46.385  13.927  18.178  0.00  0.00    +0.027 C 
ATOM     30  C   UNL     1      50.347  15.971  19.529  0.00  0.00    +0.131 C 
ATOM     31  C   UNL     1      51.148  17.153  20.068  0.00  0.00    +0.051 C 
ATOM     32  C   UNL     1      50.967  14.687  20.108  0.00  0.00    +0.027 C 
ATOM     33  C   UNL     1      48.741  17.912  17.927  0.00  0.00    +0.153 C 
ENDROOT
BRANCH  26  27
ATOM     27  O   UNL     1      47.757  13.706  20.127  0.00  0.00    -0.537 OA
ATOM     28  H   UNL     1      48.491  14.065  20.644  0.00  0.00    +0.366 HD
ENDBRANCH  26  27
BRANCH   4   3
ATOM      3  O   UNL     1      51.095  18.155  17.411  0.00  0.00    -0.332 OA
BRANCH   3   2
ATOM      1  C   UNL     1      51.812  19.940  15.864  0.00  0.00    +0.156 C 
ATOM      2  C   UNL     1      51.655  18.488  16.238  0.00  0.00    +0.450 C 
ATOM     42  O   UNL     1      52.033  17.625  15.482  0.00  0.00    -0.507 OA
ENDBRANCH   3   2
ENDBRANCH   4   3
BRANCH   6   7
ATOM      7  O   UNL     1      49.365  13.629  18.031  0.00  0.00    -0.323 OA
BRANCH   7   8
ATOM      8  C   UNL     1      49.544  12.832  16.859  0.00  0.00    +0.374 C 
ATOM      9  C   UNL     1      49.062  13.614  15.638  0.00  0.00    +0.091 C 
ATOM     10  C   UNL     1      49.433  12.879  14.376  0.00  0.00    +0.044 C 
ATOM     11  C   UNL     1      50.592  12.187  14.323  0.00  0.00    -0.202 C 
ATOM     15  C   UNL     1      51.468  12.166  15.513  0.00  0.00    +0.558 C 
ATOM     16  O   UNL     1      52.640  11.859  15.406  0.00  0.00    -0.497 OA
ATOM     17  N   UNL     1      50.960  12.492  16.715  0.00  0.00    -0.639 N 
ATOM     18  C   UNL     1      51.832  12.503  17.892  0.00  0.00    +0.260 C 
BRANCH  11  12
ATOM     12  C   UNL     1      50.975  11.464  13.098  0.00  0.00    +0.528 C 
ATOM     13  O   UNL     1      51.261  10.277  13.152  0.00  0.00    -0.662 OA
ATOM     14  O   UNL     1      51.007  12.052  12.025  0.00  0.00    -0.691 OA
ENDBRANCH  11  12
ENDBRANCH   7   8
ENDBRANCH   6   7
BRANCH  33  34
ATOM     34  O   UNL     1      49.015  18.690  19.085  0.00  0.00    -0.330 OA
BRANCH  34  35
ATOM     35  C   UNL     1      49.126  20.092  18.831  0.00  0.00    +0.201 C 
BRANCH  35  36
ATOM     36  C   UNL     1      50.215  20.675  19.695  0.00  0.00    -0.084 A 
ATOM     37  C   UNL     1      51.359  21.187  19.113  0.00  0.00    +0.024 A 
ATOM     38  C   UNL     1      52.357  21.722  19.907  0.00  0.00    -0.002 A 
ATOM     39  C   UNL     1      52.211  21.745  21.281  0.00  0.00    +0.006 A 
ATOM     40  C   UNL     1      51.066  21.234  21.862  0.00  0.00    +0.000 A 
ATOM     41  C   UNL     1      50.066  20.703  21.069  0.00  0.00    +0.028 A 
ENDBRANCH  35  36
ENDBRANCH  34  35
ENDBRANCH  33  34
TORSDOF 9
ENDMDL
MODEL 2
REMARK VINA RESULT:      -6.3      1.491      2.088
REMARK  Name = ZINC95485996
REMARK  15 active torsions:
REMARK  status: ('A' for Active; 'I' for Inactive)
REMARK    1  A    between atoms: C1_1  and  C2_2
REMARK    2  A    between atoms: C2_2  and  O2_4
REMARK    3  A    between atoms: O2_4  and  C3_5
REMARK    4  A    between atoms: C5_9  and  O6_34
REMARK    5  A    between atoms: C7_12  and  C21_29
REMARK    6  A    between atoms: C8_13  and  O3_15
REMARK    7  A    between atoms: O3_15  and  C9_16
REMARK    8  A    between atoms: C9_16  and  C10_17
REMARK    9  A    between atoms: C19_26  and  C20_27
REMARK   10  A    between atoms: C19_26  and  O4_28
REMARK   11  A    between atoms: C22_31  and  C23_32
REMARK   12  A    between atoms: C22_31  and  C24_33
REMARK   13  A    between atoms: O6_34  and  C25_35
REMARK   14  A    between atoms: C28_39  and  C31_44
REMARK   15  A    between atoms: N1_42  and  C30_43
REMARK                            x       y       z     vdW  Elec       q    Type
REMARK                         _______ _______ _______ _____ _____    ______ ____
ROOT
ATOM      4  C   UNL     1      49.726  17.467  17.791  0.00  0.00    +0.165 C 
ATOM      5  C   UNL     1      50.076  16.138  18.455  0.00  0.00    -0.031 C 
ATOM      6  C   UNL     1      48.875  15.185  18.133  0.00  0.00    +0.142 C 
ATOM     19  C   UNL     1      47.822  15.804  19.074  0.00  0.00    +0.162 C 
ATOM     20  O   UNL     1      48.545  16.241  20.252  0.00  0.00    -0.326 OA
ATOM     21  C   UNL     1      47.278  17.067  18.410  0.00  0.00    -0.051 C 
ATOM     22  C   UNL     1      46.663  16.811  17.031  0.00  0.00    +0.047 C 
ATOM     23  C   UNL     1      46.213  17.692  19.321  0.00  0.00    +0.056 C 
ATOM     24  C   UNL     1      45.092  16.685  19.571  0.00  0.00    +0.007 C 
ATOM     25  C   UNL     1      45.645  15.464  20.296  0.00  0.00    +0.001 C 
ATOM     26  C   UNL     1      46.773  14.804  19.501  0.00  0.00    +0.156 C 
ATOM     29  C   UNL     1      46.195  14.014  18.332  0.00  0.00    +0.027 C 
ATOM     30  C   UNL     1      49.953  16.214  19.989  0.00  0.00    +0.131 C 
ATOM     31  C   UNL     1      50.662  17.428  20.581  0.00  0.00    +0.051 C 
ATOM     32  C   UNL     1      50.569  14.958  20.631  0.00  0.00    +0.027 C 
ATOM     33  C   UNL     1      48.417  18.082  18.239  0.00  0.00    +0.153 C 
ENDROOT
BRANCH  26  27
ATOM     27  O   UNL     1      47.407  13.857  20.391  0.00  0.00    -0.537 OA
ATOM     28  H   UNL     1      46.805  13.189  20.747  0.00  0.00    +0.366 HD
ENDBRANCH  26  27
BRANCH   4   3
ATOM      3  O   UNL     1      50.795  18.409  17.919  0.00  0.00    -0.332 OA
BRANCH   3   2
ATOM      1  C   UNL     1      51.480  20.462  16.732  0.00  0.00    +0.156 C 
ATOM      2  C   UNL     1      51.247  18.974  16.789  0.00  0.00    +0.450 C 
ATOM     42  O   UNL     1      51.467  18.291  15.817  0.00  0.00    -0.507 OA
ENDBRANCH   3   2
ENDBRANCH   4   3
BRANCH   6   7
ATOM      7  O   UNL     1      49.187  13.826  18.439  0.00  0.00    -0.323 OA
BRANCH   7   8
ATOM      8  C   UNL     1      49.344  12.993  17.288  0.00  0.00    +0.374 C 
ATOM      9  C   UNL     1      48.854  13.743  16.050  0.00  0.00    +0.091 C 
ATOM     10  C   UNL     1      49.202  12.967  14.807  0.00  0.00    +0.044 C 
ATOM     11  C   UNL     1      50.353  12.262  14.760  0.00  0.00    -0.202 C 
ATOM     15  C   UNL     1      51.244  12.267  15.940  0.00  0.00    +0.558 C 
ATOM     16  O   UNL     1      52.412  11.945  15.827  0.00  0.00    -0.497 OA
ATOM     17  N   UNL     1      50.754  12.634  17.138  0.00  0.00    -0.639 N 
ATOM     18  C   UNL     1      51.640  12.671  18.304  0.00  0.00    +0.260 C 
BRANCH  11  12
ATOM     12  C   UNL     1      50.714  11.499  13.553  0.00  0.00    +0.528 C 
ATOM     13  O   UNL     1      50.708  10.277  13.576  0.00  0.00    -0.662 OA
ATOM     14  O   UNL     1      51.021  12.089  12.525  0.00  0.00    -0.691 OA
ENDBRANCH  11  12
ENDBRANCH   7   8
ENDBRANCH   6   7
BRANCH  33  34
ATOM     34  O   UNL     1      48.564  18.878  19.408  0.00  0.00    -0.330 OA
BRANCH  34  35
ATOM     35  C   UNL     1      48.667  20.279  19.149  0.00  0.00    +0.201 C 
BRANCH  35  36
ATOM     36  C   UNL     1      47.423  20.974  19.640  0.00  0.00    -0.084 A 
ATOM     37  C   UNL     1      46.375  21.212  18.771  0.00  0.00    +0.024 A 
ATOM     38  C   UNL     1      45.234  21.849  19.222  0.00  0.00    -0.002 A 
ATOM     39  C   UNL     1      45.142  22.249  20.542  0.00  0.00    +0.006 A 
ATOM     40  C   UNL     1      46.189  22.010  21.411  0.00  0.00    +0.000 A 
ATOM     41  C   UNL     1      47.328  21.369  20.962  0.00  0.00    +0.028 A 
ENDBRANCH  35  36
ENDBRANCH  34  35
ENDBRANCH  33  34
TORSDOF 9
ENDMDL
MODEL 3
REMARK VINA RESULT:      -6.0      3.312      8.604
REMARK  Name = ZINC95485996
REMARK  15 active torsions:
REMARK  status: ('A' for Active; 'I' for Inactive)
REMARK    1  A    between atoms: C1_1  and  C2_2
REMARK    2  A    between atoms: C2_2  and  O2_4
REMARK    3  A    between atoms: O2_4  and  C3_5
REMARK    4  A    between atoms: C5_9  and  O6_34
REMARK    5  A    between atoms: C7_12  and  C21_29
REMARK    6  A    between atoms: C8_13  and  O3_15
REMARK    7  A    between atoms: O3_15  and  C9_16
REMARK    8  A    between atoms: C9_16  and  C10_17
REMARK    9  A    between atoms: C19_26  and  C20_27
REMARK   10  A    between atoms: C19_26  and  O4_28
REMARK   11  A    between atoms: C22_31  and  C23_32
REMARK   12  A    between atoms: C22_31  and  C24_33
REMARK   13  A    between atoms: O6_34  and  C25_35
REMARK   14  A    between atoms: C28_39  and  C31_44
REMARK   15  A    between atoms: N1_42  and  C30_43
REMARK                            x       y       z     vdW  Elec       q    Type
REMARK                         _______ _______ _______ _____ _____    ______ ____
ROOT
ATOM      4  C   UNL     1      47.570  16.311  19.541  0.00  0.00    +0.165 C 
ATOM      5  C   UNL     1      47.984  17.396  20.531  0.00  0.00    -0.031 C 
ATOM      6  C   UNL     1      48.526  18.574  19.651  0.00  0.00    +0.142 C 
ATOM     19  C   UNL     1      49.863  17.945  19.210  0.00  0.00    +0.162 C 
ATOM     20  O   UNL     1      50.327  17.159  20.337  0.00  0.00    -0.326 OA
ATOM     21  C   UNL     1      49.571  16.954  18.086  0.00  0.00    -0.051 C 
ATOM     22  C   UNL     1      48.869  17.590  16.883  0.00  0.00    +0.047 C 
ATOM     23  C   UNL     1      50.891  16.327  17.616  0.00  0.00    +0.056 C 
ATOM     24  C   UNL     1      51.843  17.423  17.140  0.00  0.00    +0.007 C 
ATOM     25  C   UNL     1      52.174  18.360  18.296  0.00  0.00    +0.001 C 
ATOM     26  C   UNL     1      50.911  18.986  18.889  0.00  0.00    +0.156 C 
ATOM     29  C   UNL     1      50.392  20.086  17.971  0.00  0.00    +0.027 C 
ATOM     30  C   UNL     1      49.269  17.018  21.293  0.00  0.00    +0.131 C 
ATOM     31  C   UNL     1      49.219  15.609  21.876  0.00  0.00    +0.051 C 
ATOM     32  C   UNL     1      49.499  17.995  22.459  0.00  0.00    +0.027 C 
ATOM     33  C   UNL     1      48.671  15.830  18.619  0.00  0.00    +0.153 C 
ENDROOT
BRANCH  26  27
ATOM     27  O   UNL     1      51.303  19.610  20.133  0.00  0.00    -0.537 OA
ATOM     28  H   UNL     1      52.252  19.563  20.314  0.00  0.00    +0.366 HD
ENDBRANCH  26  27
BRANCH   4   3
ATOM      3  O   UNL     1      46.955  15.205  20.210  0.00  0.00    -0.332 OA
BRANCH   3   2
ATOM      1  C   UNL     1      45.230  13.637  19.398  0.00  0.00    +0.156 C 
ATOM      2  C   UNL     1      45.660  14.976  19.941  0.00  0.00    +0.450 C 
ATOM     42  O   UNL     1      44.840  15.842  20.133  0.00  0.00    -0.507 OA
ENDBRANCH   3   2
ENDBRANCH   4   3
BRANCH   6   7
ATOM      7  O   UNL     1      48.681  19.771  20.415  0.00  0.00    -0.323 OA
BRANCH   7   8
ATOM      8  C   UNL     1      47.816  20.834  20.010  0.00  0.00    +0.374 C 
ATOM      9  C   UNL     1      46.762  20.289  19.047  0.00  0.00    +0.091 C 
ATOM     10  C   UNL     1      45.721  21.343  18.774  0.00  0.00    +0.044 C 
ATOM     11  C   UNL     1      45.363  22.199  19.757  0.00  0.00    -0.202 C 
ATOM     15  C   UNL     1      46.010  22.079  21.080  0.00  0.00    +0.558 C 
ATOM     16  O   UNL     1      45.495  22.579  22.062  0.00  0.00    -0.497 OA
ATOM     17  N   UNL     1      47.173  21.411  21.191  0.00  0.00    -0.639 N 
ATOM     18  C   UNL     1      47.803  21.263  22.505  0.00  0.00    +0.260 C 
BRANCH  11  12
ATOM     12  C   UNL     1      44.344  23.234  19.512  0.00  0.00    +0.528 C 
ATOM     13  O   UNL     1      44.685  24.380  19.256  0.00  0.00    -0.662 OA
ATOM     14  O   UNL     1      43.156  22.947  19.566  0.00  0.00    -0.691 OA
ENDBRANCH  11  12
ENDBRANCH   7   8
ENDBRANCH   6   7
BRANCH  33  34
ATOM     34  O   UNL     1      49.450  14.792  19.200  0.00  0.00    -0.330 OA
BRANCH  34  35
ATOM     35  C   UNL     1      48.973  13.477  18.911  0.00  0.00    +0.201 C 
BRANCH  35  36
ATOM     36  C   UNL     1      48.967  13.260  17.420  0.00  0.00    -0.084 A 
ATOM     37  C   UNL     1      50.141  12.942  16.762  0.00  0.00    +0.024 A 
ATOM     38  C   UNL     1      50.134  12.743  15.394  0.00  0.00    -0.002 A 
ATOM     39  C   UNL     1      48.955  12.862  14.683  0.00  0.00    +0.006 A 
ATOM     40  C   UNL     1      47.781  13.179  15.341  0.00  0.00    +0.000 A 
ATOM     41  C   UNL     1      47.786  13.373  16.709  0.00  0.00    +0.028 A 
ENDBRANCH  35  36
ENDBRANCH  34  35
ENDBRANCH  33  34
TORSDOF 9
ENDMDL
MODEL 4
REMARK VINA RESULT:      -5.8      3.222      8.226
REMARK  Name = ZINC95485996
REMARK  15 active torsions:
REMARK  status: ('A' for Active; 'I' for Inactive)
REMARK    1  A    between atoms: C1_1  and  C2_2
REMARK    2  A    between atoms: C2_2  and  O2_4
REMARK    3  A    between atoms: O2_4  and  C3_5
REMARK    4  A    between atoms: C5_9  and  O6_34
REMARK    5  A    between atoms: C7_12  and  C21_29
REMARK    6  A    between atoms: C8_13  and  O3_15
REMARK    7  A    between atoms: O3_15  and  C9_16
REMARK    8  A    between atoms: C9_16  and  C10_17
REMARK    9  A    between atoms: C19_26  and  C20_27
REMARK   10  A    between atoms: C19_26  and  O4_28
REMARK   11  A    between atoms: C22_31  and  C23_32
REMARK   12  A    between atoms: C22_31  and  C24_33
REMARK   13  A    between atoms: O6_34  and  C25_35
REMARK   14  A    between atoms: C28_39  and  C31_44
REMARK   15  A    between atoms: N1_42  and  C30_43
REMARK                            x       y       z     vdW  Elec       q    Type
REMARK                         _______ _______ _______ _____ _____    ______ ____
ROOT
ATOM      4  C   UNL     1      47.199  14.972  18.908  0.00  0.00    +0.165 C 
ATOM      5  C   UNL     1      47.026  15.829  20.159  0.00  0.00    -0.031 C 
ATOM      6  C   UNL     1      47.323  17.298  19.699  0.00  0.00    +0.142 C 
ATOM     19  C   UNL     1      48.852  17.189  19.533  0.00  0.00    +0.162 C 
ATOM     20  O   UNL     1      49.306  16.290  20.575  0.00  0.00    -0.326 OA
ATOM     21  C   UNL     1      49.134  16.487  18.206  0.00  0.00    -0.051 C 
ATOM     22  C   UNL     1      48.525  17.204  16.998  0.00  0.00    +0.047 C 
ATOM     23  C   UNL     1      50.653  16.385  18.008  0.00  0.00    +0.056 C 
ATOM     24  C   UNL     1      51.272  17.781  18.026  0.00  0.00    +0.007 C 
ATOM     25  C   UNL     1      51.037  18.434  19.383  0.00  0.00    +0.001 C 
ATOM     26  C   UNL     1      49.546  18.519  19.713  0.00  0.00    +0.156 C 
ATOM     29  C   UNL     1      48.897  19.641  18.911  0.00  0.00    +0.027 C 
ATOM     30  C   UNL     1      48.179  15.624  21.159  0.00  0.00    +0.131 C 
ATOM     31  C   UNL     1      48.473  14.151  21.431  0.00  0.00    +0.051 C 
ATOM     32  C   UNL     1      47.836  16.285  22.505  0.00  0.00    +0.027 C 
ATOM     33  C   UNL     1      48.560  15.064  18.251  0.00  0.00    +0.153 C 
ENDROOT
BRANCH  26  27
ATOM     27  O   UNL     1      49.452  18.876  21.111  0.00  0.00    -0.537 OA
ATOM     28  H   UNL     1      50.264  18.720  21.612  0.00  0.00    +0.366 HD
ENDBRANCH  26  27
BRANCH   4   3
ATOM      3  O   UNL     1      46.854  13.607  19.162  0.00  0.00    -0.332 OA
BRANCH   3   2
ATOM      1  C   UNL     1      45.696  12.589  17.234  0.00  0.00    +0.156 C 
ATOM      2  C   UNL     1      45.706  13.160  18.629  0.00  0.00    +0.450 C 
ATOM     42  O   UNL     1      44.681  13.216  19.266  0.00  0.00    -0.507 OA
ENDBRANCH   3   2
ENDBRANCH   4   3
BRANCH   6   7
ATOM      7  O   UNL     1      46.921  18.248  20.686  0.00  0.00    -0.323 OA
BRANCH   7   8
ATOM      8  C   UNL     1      45.873  19.121  20.259  0.00  0.00    +0.374 C 
ATOM      9  C   UNL     1      45.592  18.886  18.776  0.00  0.00    +0.091 C 
ATOM     10  C   UNL     1      44.358  19.643  18.359  0.00  0.00    +0.044 C 
ATOM     11  C   UNL     1      43.334  19.780  19.229  0.00  0.00    -0.202 C 
ATOM     15  C   UNL     1      43.454  19.184  20.577  0.00  0.00    +0.558 C 
ATOM     16  O   UNL     1      42.461  18.987  21.251  0.00  0.00    -0.497 OA
ATOM     17  N   UNL     1      44.671  18.858  21.050  0.00  0.00    -0.639 N 
ATOM     18  C   UNL     1      44.792  18.238  22.372  0.00  0.00    +0.260 C 
BRANCH  11  12
ATOM     12  C   UNL     1      42.117  20.513  18.841  0.00  0.00    +0.528 C 
ATOM     13  O   UNL     1      41.187  19.919  18.314  0.00  0.00    -0.662 OA
ATOM     14  O   UNL     1      42.036  21.717  19.045  0.00  0.00    -0.691 OA
ENDBRANCH  11  12
ENDBRANCH   7   8
ENDBRANCH   6   7
BRANCH  33  34
ATOM     34  O   UNL     1      49.498  14.159  18.818  0.00  0.00    -0.330 OA
BRANCH  34  35
ATOM     35  C   UNL     1      49.461  12.850  18.246  0.00  0.00    +0.201 C 
BRANCH  35  36
ATOM     36  C   UNL     1      49.918  12.914  16.812  0.00  0.00    -0.084 A 
ATOM     37  C   UNL     1      51.235  13.213  16.518  0.00  0.00    +0.024 A 
ATOM     38  C   UNL     1      51.653  13.271  15.201  0.00  0.00    -0.002 A 
ATOM     39  C   UNL     1      50.755  13.030  14.179  0.00  0.00    +0.006 A 
ATOM     40  C   UNL     1      49.438  12.730  14.473  0.00  0.00    +0.000 A 
ATOM     41  C   UNL     1      49.020  12.667  15.789  0.00  0.00    +0.028 A 
ENDBRANCH  35  36
ENDBRANCH  34  35
ENDBRANCH  33  34
TORSDOF 9
ENDMDL
MODEL 5
REMARK VINA RESULT:      -5.8      3.137      8.021
REMARK  Name = ZINC95485996
REMARK  15 active torsions:
REMARK  status: ('A' for Active; 'I' for Inactive)
REMARK    1  A    between atoms: C1_1  and  C2_2
REMARK    2  A    between atoms: C2_2  and  O2_4
REMARK    3  A    between atoms: O2_4  and  C3_5
REMARK    4  A    between atoms: C5_9  and  O6_34
REMARK    5  A    between atoms: C7_12  and  C21_29
REMARK    6  A    between atoms: C8_13  and  O3_15
REMARK    7  A    between atoms: O3_15  and  C9_16
REMARK    8  A    between atoms: C9_16  and  C10_17
REMARK    9  A    between atoms: C19_26  and  C20_27
REMARK   10  A    between atoms: C19_26  and  O4_28
REMARK   11  A    between atoms: C22_31  and  C23_32
REMARK   12  A    between atoms: C22_31  and  C24_33
REMARK   13  A    between atoms: O6_34  and  C25_35
REMARK   14  A    between atoms: C28_39  and  C31_44
REMARK   15  A    between atoms: N1_42  and  C30_43
REMARK                            x       y       z     vdW  Elec       q    Type
REMARK                         _______ _______ _______ _____ _____    ______ ____
ROOT
ATOM      4  C   UNL     1      47.988  15.316  18.422  0.00  0.00    +0.165 C 
ATOM      5  C   UNL     1      47.720  16.019  19.750  0.00  0.00    -0.031 C 
ATOM      6  C   UNL     1      48.040  17.531  19.491  0.00  0.00    +0.142 C 
ATOM     19  C   UNL     1      49.578  17.439  19.424  0.00  0.00    +0.162 C 
ATOM     20  O   UNL     1      49.961  16.421  20.383  0.00  0.00    -0.326 OA
ATOM     21  C   UNL     1      49.960  16.899  18.047  0.00  0.00    -0.051 C 
ATOM     22  C   UNL     1      49.434  17.756  16.892  0.00  0.00    +0.047 C 
ATOM     23  C   UNL     1      51.489  16.817  17.950  0.00  0.00    +0.056 C 
ATOM     24  C   UNL     1      52.097  18.200  18.178  0.00  0.00    +0.007 C 
ATOM     25  C   UNL     1      51.761  18.687  19.582  0.00  0.00    +0.001 C 
ATOM     26  C   UNL     1      50.249  18.736  19.811  0.00  0.00    +0.156 C 
ATOM     29  C   UNL     1      49.652  19.947  19.103  0.00  0.00    +0.027 C 
ATOM     30  C   UNL     1      48.799  15.693  20.800  0.00  0.00    +0.131 C 
ATOM     31  C   UNL     1      49.081  14.198  20.916  0.00  0.00    +0.051 C 
ATOM     32  C   UNL     1      48.355  16.190  22.187  0.00  0.00    +0.027 C 
ATOM     33  C   UNL     1      49.392  15.483  17.881  0.00  0.00    +0.153 C 
ENDROOT
BRANCH  26  27
ATOM     27  O   UNL     1      50.052  18.925  21.231  0.00  0.00    -0.537 OA
ATOM     28  H   UNL     1      49.123  18.933  21.501  0.00  0.00    +0.366 HD
ENDBRANCH  26  27
BRANCH   4   3
ATOM      3  O   UNL     1      47.634  13.932  18.486  0.00  0.00    -0.332 OA
BRANCH   3   2
ATOM      1  C   UNL     1      45.297  13.266  18.919  0.00  0.00    +0.156 C 
ATOM      2  C   UNL     1      46.437  13.586  17.987  0.00  0.00    +0.450 C 
ATOM     42  O   UNL     1      46.274  13.530  16.791  0.00  0.00    -0.507 OA
ENDBRANCH   3   2
ENDBRANCH   4   3
BRANCH   6   7
ATOM      7  O   UNL     1      47.562  18.358  20.552  0.00  0.00    -0.323 OA
BRANCH   7   8
ATOM      8  C   UNL     1      46.495  19.230  20.174  0.00  0.00    +0.374 C 
ATOM      9  C   UNL     1      46.151  18.998  18.703  0.00  0.00    +0.091 C 
ATOM     10  C   UNL     1      44.898  19.753  18.342  0.00  0.00    +0.044 C 
ATOM     11  C   UNL     1      43.912  19.886  19.256  0.00  0.00    -0.202 C 
ATOM     15  C   UNL     1      44.092  19.286  20.595  0.00  0.00    +0.558 C 
ATOM     16  O   UNL     1      43.129  19.085  21.311  0.00  0.00    -0.497 OA
ATOM     17  N   UNL     1      45.329  18.962  21.015  0.00  0.00    -0.639 N 
ATOM     18  C   UNL     1      45.509  18.339  22.328  0.00  0.00    +0.260 C 
BRANCH  11  12
ATOM     12  C   UNL     1      42.678  20.618  18.923  0.00  0.00    +0.528 C 
ATOM     13  O   UNL     1      41.792  20.065  18.286  0.00  0.00    -0.662 OA
ATOM     14  O   UNL     1      42.538  21.779  19.284  0.00  0.00    -0.691 OA
ENDBRANCH  11  12
ENDBRANCH   7   8
ENDBRANCH   6   7
BRANCH  33  34
ATOM     34  O   UNL     1      50.292  14.514  18.403  0.00  0.00    -0.330 OA
BRANCH  34  35
ATOM     35  C   UNL     1      50.636  13.481  17.477  0.00  0.00    +0.201 C 
BRANCH  35  36
ATOM     36  C   UNL     1      51.886  12.782  17.944  0.00  0.00    -0.084 A 
ATOM     37  C   UNL     1      52.633  13.317  18.977  0.00  0.00    +0.024 A 
ATOM     38  C   UNL     1      53.781  12.675  19.405  0.00  0.00    -0.002 A 
ATOM     39  C   UNL     1      54.180  11.498  18.801  0.00  0.00    +0.006 A 
ATOM     40  C   UNL     1      53.433  10.962  17.769  0.00  0.00    +0.000 A 
ATOM     41  C   UNL     1      52.284  11.601  17.344  0.00  0.00    +0.028 A 
ENDBRANCH  35  36
ENDBRANCH  34  35
ENDBRANCH  33  34
TORSDOF 9
ENDMDL
MODEL 6
REMARK VINA RESULT:      -5.7      2.583      5.521
REMARK  Name = ZINC95485996
REMARK  15 active torsions:
REMARK  status: ('A' for Active; 'I' for Inactive)
REMARK    1  A    between atoms: C1_1  and  C2_2
REMARK    2  A    between atoms: C2_2  and  O2_4
REMARK    3  A    between atoms: O2_4  and  C3_5
REMARK    4  A    between atoms: C5_9  and  O6_34
REMARK    5  A    between atoms: C7_12  and  C21_29
REMARK    6  A    between atoms: C8_13  and  O3_15
REMARK    7  A    between atoms: O3_15  and  C9_16
REMARK    8  A    between atoms: C9_16  and  C10_17
REMARK    9  A    between atoms: C19_26  and  C20_27
REMARK   10  A    between atoms: C19_26  and  O4_28
REMARK   11  A    between atoms: C22_31  and  C23_32
REMARK   12  A    between atoms: C22_31  and  C24_33
REMARK   13  A    between atoms: O6_34  and  C25_35
REMARK   14  A    between atoms: C28_39  and  C31_44
REMARK   15  A    between atoms: N1_42  and  C30_43
REMARK                            x       y       z     vdW  Elec       q    Type
REMARK                         _______ _______ _______ _____ _____    ______ ____
ROOT
ATOM      4  C   UNL     1      48.618  17.298  20.732  0.00  0.00    +0.165 C 
ATOM      5  C   UNL     1      48.813  16.695  19.343  0.00  0.00    -0.031 C 
ATOM      6  C   UNL     1      50.295  17.022  18.953  0.00  0.00    +0.142 C 
ATOM     19  C   UNL     1      50.140  18.533  18.683  0.00  0.00    +0.162 C 
ATOM     20  O   UNL     1      48.825  18.703  18.098  0.00  0.00    -0.326 OA
ATOM     21  C   UNL     1      50.108  19.252  20.030  0.00  0.00    -0.051 C 
ATOM     22  C   UNL     1      51.353  18.996  20.884  0.00  0.00    +0.047 C 
ATOM     23  C   UNL     1      49.975  20.762  19.786  0.00  0.00    +0.056 C 
ATOM     24  C   UNL     1      51.144  21.254  18.935  0.00  0.00    +0.007 C 
ATOM     25  C   UNL     1      51.114  20.573  17.572  0.00  0.00    +0.001 C 
ATOM     26  C   UNL     1      51.169  19.051  17.705  0.00  0.00    +0.156 C 
ATOM     29  C   UNL     1      52.587  18.606  18.045  0.00  0.00    +0.027 C 
ATOM     30  C   UNL     1      48.067  17.498  18.260  0.00  0.00    +0.131 C 
ATOM     31  C   UNL     1      46.616  17.788  18.631  0.00  0.00    +0.051 C 
ATOM     32  C   UNL     1      48.059  16.717  16.934  0.00  0.00    +0.027 C 
ATOM     33  C   UNL     1      48.883  18.785  20.827  0.00  0.00    +0.153 C 
ENDROOT
BRANCH  26  27
ATOM     27  O   UNL     1      50.847  18.510  16.404  0.00  0.00    -0.537 OA
ATOM     28  H   UNL     1      51.388  18.866  15.685  0.00  0.00    +0.366 HD
ENDBRANCH  26  27
BRANCH   4   3
ATOM      3  O   UNL     1      47.327  16.981  21.260  0.00  0.00    -0.332 OA
BRANCH   3   2
ATOM      1  C   UNL     1      45.952  14.932  21.194  0.00  0.00    +0.156 C 
ATOM      2  C   UNL     1      47.136  15.723  21.687  0.00  0.00    +0.450 C 
ATOM     42  O   UNL     1      47.913  15.225  22.467  0.00  0.00    -0.507 OA
ENDBRANCH   3   2
ENDBRANCH   4   3
BRANCH   6   7
ATOM      7  O   UNL     1      50.713  16.277  17.809  0.00  0.00    -0.323 OA
BRANCH   7   8
ATOM      8  C   UNL     1      51.768  15.351  18.074  0.00  0.00    +0.374 C 
ATOM      9  C   UNL     1      52.004  15.270  19.581  0.00  0.00    +0.091 C 
ATOM     10  C   UNL     1      52.964  14.152  19.894  0.00  0.00    +0.044 C 
ATOM     11  C   UNL     1      52.939  13.024  19.151  0.00  0.00    -0.202 C 
ATOM     15  C   UNL     1      51.966  12.918  18.043  0.00  0.00    +0.558 C 
ATOM     16  O   UNL     1      51.677  11.830  17.583  0.00  0.00    -0.497 OA
ATOM     17  N   UNL     1      51.402  14.035  17.549  0.00  0.00    -0.639 N 
ATOM     18  C   UNL     1      50.415  13.933  16.471  0.00  0.00    +0.260 C 
BRANCH  11  12
ATOM     12  C   UNL     1      53.866  11.917  19.442  0.00  0.00    +0.528 C 
ATOM     13  O   UNL     1      53.465  10.921  20.027  0.00  0.00    -0.662 OA
ATOM     14  O   UNL     1      55.038  11.993  19.098  0.00  0.00    -0.691 OA
ENDBRANCH  11  12
ENDBRANCH   7   8
ENDBRANCH   6   7
BRANCH  33  34
ATOM     34  O   UNL     1      47.739  19.562  20.496  0.00  0.00    -0.330 OA
BRANCH  34  35
ATOM     35  C   UNL     1      47.273  20.395  21.559  0.00  0.00    +0.201 C 
BRANCH  35  36
ATOM     36  C   UNL     1      46.432  21.509  20.993  0.00  0.00    -0.084 A 
ATOM     37  C   UNL     1      46.396  22.738  21.625  0.00  0.00    +0.024 A 
ATOM     38  C   UNL     1      45.623  23.760  21.105  0.00  0.00    -0.002 A 
ATOM     39  C   UNL     1      44.887  23.553  19.954  0.00  0.00    +0.006 A 
ATOM     40  C   UNL     1      44.924  22.325  19.321  0.00  0.00    +0.000 A 
ATOM     41  C   UNL     1      45.700  21.305  19.838  0.00  0.00    +0.028 A 
ENDBRANCH  35  36
ENDBRANCH  34  35
ENDBRANCH  33  34
TORSDOF 9
ENDMDL
MODEL 7
REMARK VINA RESULT:      -5.4      3.212      7.936
REMARK  Name = ZINC95485996
REMARK  15 active torsions:
REMARK  status: ('A' for Active; 'I' for Inactive)
REMARK    1  A    between atoms: C1_1  and  C2_2
REMARK    2  A    between atoms: C2_2  and  O2_4
REMARK    3  A    between atoms: O2_4  and  C3_5
REMARK    4  A    between atoms: C5_9  and  O6_34
REMARK    5  A    between atoms: C7_12  and  C21_29
REMARK    6  A    between atoms: C8_13  and  O3_15
REMARK    7  A    between atoms: O3_15  and  C9_16
REMARK    8  A    between atoms: C9_16  and  C10_17
REMARK    9  A    between atoms: C19_26  and  C20_27
REMARK   10  A    between atoms: C19_26  and  O4_28
REMARK   11  A    between atoms: C22_31  and  C23_32
REMARK   12  A    between atoms: C22_31  and  C24_33
REMARK   13  A    between atoms: O6_34  and  C25_35
REMARK   14  A    between atoms: C28_39  and  C31_44
REMARK   15  A    between atoms: N1_42  and  C30_43
REMARK                            x       y       z     vdW  Elec       q    Type
REMARK                         _______ _______ _______ _____ _____    ______ ____
ROOT
ATOM      4  C   UNL     1      49.891  17.061  19.577  0.00  0.00    +0.165 C 
ATOM      5  C   UNL     1      48.579  17.415  18.882  0.00  0.00    -0.031 C 
ATOM      6  C   UNL     1      47.467  17.213  19.967  0.00  0.00    +0.142 C 
ATOM     19  C   UNL     1      47.458  15.671  20.012  0.00  0.00    +0.162 C 
ATOM     20  O   UNL     1      47.712  15.229  18.654  0.00  0.00    -0.326 OA
ATOM     21  C   UNL     1      48.656  15.216  20.843  0.00  0.00    -0.051 C 
ATOM     22  C   UNL     1      48.658  15.782  22.266  0.00  0.00    +0.047 C 
ATOM     23  C   UNL     1      48.658  13.683  20.919  0.00  0.00    +0.056 C 
ATOM     24  C   UNL     1      47.350  13.194  21.538  0.00  0.00    +0.007 C 
ATOM     25  C   UNL     1      46.176  13.600  20.656  0.00  0.00    +0.001 C 
ATOM     26  C   UNL     1      46.124  15.116  20.454  0.00  0.00    +0.156 C 
ATOM     29  C   UNL     1      45.587  15.792  21.710  0.00  0.00    +0.027 C 
ATOM     30  C   UNL     1      48.160  16.337  17.864  0.00  0.00    +0.131 C 
ATOM     31  C   UNL     1      49.292  15.938  16.923  0.00  0.00    +0.051 C 
ATOM     32  C   UNL     1      46.996  16.851  16.999  0.00  0.00    +0.027 C 
ATOM     33  C   UNL     1      49.953  15.663  20.154  0.00  0.00    +0.153 C 
ENDROOT
BRANCH  26  27
ATOM     27  O   UNL     1      45.175  15.360  19.392  0.00  0.00    -0.537 OA
ATOM     28  H   UNL     1      44.731  14.563  19.071  0.00  0.00    +0.366 HD
ENDBRANCH  26  27
BRANCH   4   3
ATOM      3  O   UNL     1      51.013  17.304  18.723  0.00  0.00    -0.332 OA
BRANCH   3   2
ATOM      1  C   UNL     1      51.661  19.106  17.166  0.00  0.00    +0.156 C 
ATOM      2  C   UNL     1      51.382  18.583  18.551  0.00  0.00    +0.450 C 
ATOM     42  O   UNL     1      51.492  19.314  19.507  0.00  0.00    -0.507 OA
ENDBRANCH   3   2
ENDBRANCH   4   3
BRANCH   6   7
ATOM      7  O   UNL     1      46.223  17.780  19.556  0.00  0.00    -0.323 OA
BRANCH   7   8
ATOM      8  C   UNL     1      46.044  19.139  19.958  0.00  0.00    +0.374 C 
ATOM      9  C   UNL     1      46.766  20.057  18.972  0.00  0.00    +0.091 C 
ATOM     10  C   UNL     1      46.417  21.494  19.256  0.00  0.00    +0.044 C 
ATOM     11  C   UNL     1      45.176  21.808  19.689  0.00  0.00    -0.202 C 
ATOM     15  C   UNL     1      44.189  20.724  19.876  0.00  0.00    +0.558 C 
ATOM     16  O   UNL     1      43.001  20.978  19.928  0.00  0.00    -0.497 OA
ATOM     17  N   UNL     1      44.615  19.452  19.986  0.00  0.00    -0.639 N 
ATOM     18  C   UNL     1      43.638  18.371  20.141  0.00  0.00    +0.260 C 
BRANCH  11  12
ATOM     12  C   UNL     1      44.813  23.207  19.970  0.00  0.00    +0.528 C 
ATOM     13  O   UNL     1      44.979  23.670  21.090  0.00  0.00    -0.662 OA
ATOM     14  O   UNL     1      44.345  23.908  19.082  0.00  0.00    -0.691 OA
ENDBRANCH  11  12
ENDBRANCH   7   8
ENDBRANCH   6   7
BRANCH  33  34
ATOM     34  O   UNL     1      50.375  14.700  19.198  0.00  0.00    -0.330 OA
BRANCH  34  35
ATOM     35  C   UNL     1      51.716  14.245  19.383  0.00  0.00    +0.201 C 
BRANCH  35  36
ATOM     36  C   UNL     1      52.016  13.146  18.397  0.00  0.00    -0.084 A 
ATOM     37  C   UNL     1      52.894  12.134  18.735  0.00  0.00    +0.024 A 
ATOM     38  C   UNL     1      53.169  11.125  17.830  0.00  0.00    -0.002 A 
ATOM     39  C   UNL     1      52.563  11.128  16.588  0.00  0.00    +0.006 A 
ATOM     40  C   UNL     1      51.684  12.139  16.250  0.00  0.00    +0.000 A 
ATOM     41  C   UNL     1      51.406  13.145  17.156  0.00  0.00    +0.028 A 
ENDBRANCH  35  36
ENDBRANCH  34  35
ENDBRANCH  33  34
TORSDOF 9
ENDMDL
MODEL 8
REMARK VINA RESULT:      -5.3      3.739      8.647
REMARK  Name = ZINC95485996
REMARK  15 active torsions:
REMARK  status: ('A' for Active; 'I' for Inactive)
REMARK    1  A    between atoms: C1_1  and  C2_2
REMARK    2  A    between atoms: C2_2  and  O2_4
REMARK    3  A    between atoms: O2_4  and  C3_5
REMARK    4  A    between atoms: C5_9  and  O6_34
REMARK    5  A    between atoms: C7_12  and  C21_29
REMARK    6  A    between atoms: C8_13  and  O3_15
REMARK    7  A    between atoms: O3_15  and  C9_16
REMARK    8  A    between atoms: C9_16  and  C10_17
REMARK    9  A    between atoms: C19_26  and  C20_27
REMARK   10  A    between atoms: C19_26  and  O4_28
REMARK   11  A    between atoms: C22_31  and  C23_32
REMARK   12  A    between atoms: C22_31  and  C24_33
REMARK   13  A    between atoms: O6_34  and  C25_35
REMARK   14  A    between atoms: C28_39  and  C31_44
REMARK   15  A    between atoms: N1_42  and  C30_43
REMARK                            x       y       z     vdW  Elec       q    Type
REMARK                         _______ _______ _______ _____ _____    ______ ____
ROOT
ATOM      4  C   UNL     1      47.271  15.909  18.990  0.00  0.00    +0.165 C 
ATOM      5  C   UNL     1      46.552  16.858  19.945  0.00  0.00    -0.031 C 
ATOM      6  C   UNL     1      46.957  18.299  19.480  0.00  0.00    +0.142 C 
ATOM     19  C   UNL     1      48.416  18.307  19.979  0.00  0.00    +0.162 C 
ATOM     20  O   UNL     1      48.421  17.548  21.214  0.00  0.00    -0.326 OA
ATOM     21  C   UNL     1      49.261  17.514  18.984  0.00  0.00    -0.051 C 
ATOM     22  C   UNL     1      49.192  18.064  17.556  0.00  0.00    +0.047 C 
ATOM     23  C   UNL     1      50.723  17.525  19.450  0.00  0.00    +0.056 C 
ATOM     24  C   UNL     1      51.221  18.965  19.559  0.00  0.00    +0.007 C 
ATOM     25  C   UNL     1      50.408  19.716  20.607  0.00  0.00    +0.001 C 
ATOM     26  C   UNL     1      48.915  19.702  20.274  0.00  0.00    +0.156 C 
ATOM     29  C   UNL     1      48.622  20.687  19.147  0.00  0.00    +0.027 C 
ATOM     30  C   UNL     1      47.181  16.843  21.351  0.00  0.00    +0.131 C 
ATOM     31  C   UNL     1      47.389  15.432  21.892  0.00  0.00    +0.051 C 
ATOM     32  C   UNL     1      46.274  17.592  22.343  0.00  0.00    +0.027 C 
ATOM     33  C   UNL     1      48.778  16.057  18.954  0.00  0.00    +0.153 C 
ENDROOT
BRANCH  26  27
ATOM     27  O   UNL     1      48.224  20.175  21.452  0.00  0.00    -0.537 OA
ATOM     28  H   UNL     1      48.558  19.803  22.279  0.00  0.00    +0.366 HD
ENDBRANCH  26  27
BRANCH   4   3
ATOM      3  O   UNL     1      46.906  14.548  19.237  0.00  0.00    -0.332 OA
BRANCH   3   2
ATOM      1  C   UNL     1      45.109  12.960  18.650  0.00  0.00    +0.156 C 
ATOM      2  C   UNL     1      46.209  13.921  18.276  0.00  0.00    +0.450 C 
ATOM     42  O   UNL     1      46.463  14.126  17.113  0.00  0.00    -0.507 OA
ENDBRANCH   3   2
ENDBRANCH   4   3
BRANCH   6   7
ATOM      7  O   UNL     1      46.138  19.296  20.090  0.00  0.00    -0.323 OA
BRANCH   7   8
ATOM      8  C   UNL     1      44.878  19.488  19.443  0.00  0.00    +0.374 C 
ATOM      9  C   UNL     1      43.815  18.645  20.145  0.00  0.00    +0.091 C 
ATOM     10  C   UNL     1      42.449  18.991  19.614  0.00  0.00    +0.044 C 
ATOM     11  C   UNL     1      42.175  20.264  19.255  0.00  0.00    -0.202 C 
ATOM     15  C   UNL     1      43.232  21.289  19.391  0.00  0.00    +0.558 C 
ATOM     16  O   UNL     1      42.941  22.470  19.411  0.00  0.00    -0.497 OA
ATOM     17  N   UNL     1      44.517  20.905  19.497  0.00  0.00    -0.639 N 
ATOM     18  C   UNL     1      45.564  21.915  19.663  0.00  0.00    +0.260 C 
BRANCH  11  12
ATOM     12  C   UNL     1      40.844  20.625  18.737  0.00  0.00    +0.528 C 
ATOM     13  O   UNL     1      40.363  20.004  17.800  0.00  0.00    -0.662 OA
ATOM     14  O   UNL     1      40.220  21.548  19.243  0.00  0.00    -0.691 OA
ENDBRANCH  11  12
ENDBRANCH   7   8
ENDBRANCH   6   7
BRANCH  33  34
ATOM     34  O   UNL     1      49.423  15.291  19.962  0.00  0.00    -0.330 OA
BRANCH  34  35
ATOM     35  C   UNL     1      50.449  14.428  19.469  0.00  0.00    +0.201 C 
BRANCH  35  36
ATOM     36  C   UNL     1      49.826  13.182  18.895  0.00  0.00    -0.084 A 
ATOM     37  C   UNL     1      49.278  12.232  19.737  0.00  0.00    +0.024 A 
ATOM     38  C   UNL     1      48.706  11.089  19.209  0.00  0.00    -0.002 A 
ATOM     39  C   UNL     1      48.683  10.896  17.841  0.00  0.00    +0.006 A 
ATOM     40  C   UNL     1      49.230  11.846  17.000  0.00  0.00    +0.000 A 
ATOM     41  C   UNL     1      49.798  12.991  17.526  0.00  0.00    +0.028 A 
ENDBRANCH  35  36
ENDBRANCH  34  35
ENDBRANCH  33  34
TORSDOF 9
ENDMDL
MODEL 9
REMARK VINA RESULT:      -5.3      3.203      8.187
REMARK  Name = ZINC95485996
REMARK  15 active torsions:
REMARK  status: ('A' for Active; 'I' for Inactive)
REMARK    1  A    between atoms: C1_1  and  C2_2
REMARK    2  A    between atoms: C2_2  and  O2_4
REMARK    3  A    between atoms: O2_4  and  C3_5
REMARK    4  A    between atoms: C5_9  and  O6_34
REMARK    5  A    between atoms: C7_12  and  C21_29
REMARK    6  A    between atoms: C8_13  and  O3_15
REMARK    7  A    between atoms: O3_15  and  C9_16
REMARK    8  A    between atoms: C9_16  and  C10_17
REMARK    9  A    between atoms: C19_26  and  C20_27
REMARK   10  A    between atoms: C19_26  and  O4_28
REMARK   11  A    between atoms: C22_31  and  C23_32
REMARK   12  A    between atoms: C22_31  and  C24_33
REMARK   13  A    between atoms: O6_34  and  C25_35
REMARK   14  A    between atoms: C28_39  and  C31_44
REMARK   15  A    between atoms: N1_42  and  C30_43
REMARK                            x       y       z     vdW  Elec       q    Type
REMARK                         _______ _______ _______ _____ _____    ______ ____
ROOT
ATOM      4  C   UNL     1      48.447  15.872  17.681  0.00  0.00    +0.165 C 
ATOM      5  C   UNL     1      47.815  16.492  18.924  0.00  0.00    -0.031 C 
ATOM      6  C   UNL     1      48.090  18.030  18.805  0.00  0.00    +0.142 C 
ATOM     19  C   UNL     1      49.600  18.026  19.118  0.00  0.00    +0.162 C 
ATOM     20  O   UNL     1      49.801  16.984  20.106  0.00  0.00    -0.326 OA
ATOM     21  C   UNL     1      50.342  17.577  17.862  0.00  0.00    -0.051 C 
ATOM     22  C   UNL     1      50.062  18.460  16.643  0.00  0.00    +0.047 C 
ATOM     23  C   UNL     1      51.851  17.583  18.144  0.00  0.00    +0.056 C 
ATOM     24  C   UNL     1      52.293  18.984  18.564  0.00  0.00    +0.007 C 
ATOM     25  C   UNL     1      51.590  19.382  19.857  0.00  0.00    +0.001 C 
ATOM     26  C   UNL     1      50.069  19.337  19.705  0.00  0.00    +0.156 C 
ATOM     29  C   UNL     1      49.587  20.547  18.913  0.00  0.00    +0.027 C 
ATOM     30  C   UNL     1      48.623  16.174  20.197  0.00  0.00    +0.131 C 
ATOM     31  C   UNL     1      48.965  14.692  20.327  0.00  0.00    +0.051 C 
ATOM     32  C   UNL     1      47.821  16.576  21.447  0.00  0.00    +0.027 C 
ATOM     33  C   UNL     1      49.927  16.141  17.511  0.00  0.00    +0.153 C 
ENDROOT
BRANCH  26  27
ATOM     27  O   UNL     1      49.517  19.444  21.036  0.00  0.00    -0.537 OA
ATOM     28  H   UNL     1      48.566  19.273  21.083  0.00  0.00    +0.366 HD
ENDBRANCH  26  27
BRANCH   4   3
ATOM      3  O   UNL     1      48.179  14.468  17.607  0.00  0.00    -0.332 OA
BRANCH   3   2
ATOM      1  C   UNL     1      46.885  12.612  16.621  0.00  0.00    +0.156 C 
ATOM      2  C   UNL     1      47.222  14.075  16.751  0.00  0.00    +0.450 C 
ATOM     42  O   UNL     1      46.633  14.893  16.086  0.00  0.00    -0.507 OA
ENDBRANCH   3   2
ENDBRANCH   4   3
BRANCH   6   7
ATOM      7  O   UNL     1      47.313  18.776  19.742  0.00  0.00    -0.323 OA
BRANCH   7   8
ATOM      8  C   UNL     1      45.904  18.701  19.518  0.00  0.00    +0.374 C 
ATOM      9  C   UNL     1      45.233  18.051  20.727  0.00  0.00    +0.091 C 
ATOM     10  C   UNL     1      43.736  18.151  20.602  0.00  0.00    +0.044 C 
ATOM     11  C   UNL     1      43.185  19.244  20.028  0.00  0.00    -0.202 C 
ATOM     15  C   UNL     1      44.074  20.316  19.533  0.00  0.00    +0.558 C 
ATOM     16  O   UNL     1      43.635  21.433  19.332  0.00  0.00    -0.497 OA
ATOM     17  N   UNL     1      45.374  20.048  19.309  0.00  0.00    -0.639 N 
ATOM     18  C   UNL     1      46.265  21.115  18.848  0.00  0.00    +0.260 C 
BRANCH  11  12
ATOM     12  C   UNL     1      41.723  19.365  19.899  0.00  0.00    +0.528 C 
ATOM     13  O   UNL     1      41.011  19.265  20.888  0.00  0.00    -0.662 OA
ATOM     14  O   UNL     1      41.220  19.564  18.801  0.00  0.00    -0.691 OA
ENDBRANCH  11  12
ENDBRANCH   7   8
ENDBRANCH   6   7
BRANCH  33  34
ATOM     34  O   UNL     1      50.733  15.198  18.206  0.00  0.00    -0.330 OA
BRANCH  34  35
ATOM     35  C   UNL     1      51.696  14.538  17.383  0.00  0.00    +0.201 C 
BRANCH  35  36
ATOM     36  C   UNL     1      51.096  13.277  16.818  0.00  0.00    -0.084 A 
ATOM     37  C   UNL     1      50.791  13.199  15.472  0.00  0.00    +0.024 A 
ATOM     38  C   UNL     1      50.240  12.041  14.955  0.00  0.00    -0.002 A 
ATOM     39  C   UNL     1      49.996  10.961  15.783  0.00  0.00    +0.006 A 
ATOM     40  C   UNL     1      50.303  11.039  17.128  0.00  0.00    +0.000 A 
ATOM     41  C   UNL     1      50.857  12.195  17.645  0.00  0.00    +0.028 A 
ENDBRANCH  35  36
ENDBRANCH  34  35
ENDBRANCH  33  34
TORSDOF 9
ENDMDL
