MODEL 1
REMARK VINA RESULT:      -6.1      0.000      0.000
REMARK  Name = ZINC01635104
REMARK  12 active torsions:
REMARK  status: ('A' for Active; 'I' for Inactive)
REMARK    1  A    between atoms: C1_1  and  C2_2
REMARK    2  A    between atoms: C4_4  and  O4_31
REMARK    3  A    between atoms: C7_7  and  C8_8
REMARK    4  A    between atoms: C9_9  and  O2_24
REMARK    5  A    between atoms: C11_11  and  O1_22
REMARK    6  A    between atoms: C15_15  and  C19_21
REMARK    7  A    between atoms: C16_17  and  C17_19
REMARK    8  A    between atoms: C18_20  and  N1_62
REMARK    9  A    between atoms: O1_22  and  C20_23
REMARK   10  A    between atoms: C24_28  and  O3_29
REMARK   11  A    between atoms: O3_29  and  C25_30
REMARK   12  A    between atoms: O4_31  and  C26_32
REMARK                            x       y       z     vdW  Elec       q    Type
REMARK                         _______ _______ _______ _____ _____    ______ ____
ROOT
ATOM     16  C   UNL     1      48.571  18.150  18.807  0.00  0.00    -0.072 A 
ATOM     17  C   UNL     1      48.816  17.753  17.489  0.00  0.00    +0.191 A 
ATOM     20  C   UNL     1      50.043  18.029  16.909  0.00  0.00    -0.081 A 
ATOM     21  C   UNL     1      51.021  18.683  17.640  0.00  0.00    +0.177 A 
ATOM     24  C   UNL     1      50.781  19.073  18.957  0.00  0.00    -0.173 A 
ATOM     25  C   UNL     1      51.885  19.773  19.707  0.00  0.00    +0.238 C 
ATOM     26  N   UNL     1      51.332  20.482  20.872  0.00  0.00    -0.392 N 
ATOM     27  H   UNL     1      50.714  21.234  20.545  0.00  0.00    +0.428 HD
ATOM     28  C   UNL     1      52.427  21.074  21.672  0.00  0.00    +0.326 C 
ATOM     29  C   UNL     1      50.551  19.541  21.700  0.00  0.00    +0.178 C 
ATOM     30  C   UNL     1      51.338  18.249  21.929  0.00  0.00    +0.089 C 
ATOM     31  C   UNL     1      49.253  19.226  20.954  0.00  0.00    +0.131 C 
ATOM     32  C   UNL     1      52.558  20.790  18.783  0.00  0.00    +0.098 C 
ATOM     33  C   UNL     1      49.562  18.812  19.538  0.00  0.00    -0.019 A 
ENDROOT
BRANCH  16  15
ATOM      1  C   UNL     1      48.156  15.645  20.153  0.00  0.00    +0.092 C 
ATOM      2  C   UNL     1      47.046  16.661  20.084  0.00  0.00    -0.004 A 
ATOM      3  C   UNL     1      45.820  16.380  20.673  0.00  0.00    -0.112 A 
ATOM      4  C   UNL     1      44.786  17.290  20.624  0.00  0.00    +0.191 A 
ATOM      7  C   UNL     1      44.968  18.525  19.970  0.00  0.00    -0.104 A 
ATOM      8  C   UNL     1      46.215  18.818  19.368  0.00  0.00    +0.048 A 
ATOM      9  C   UNL     1      46.397  20.047  18.718  0.00  0.00    -0.046 A 
ATOM     10  C   UNL     1      45.376  20.949  18.669  0.00  0.00    +0.080 A 
ATOM     11  C   UNL     1      44.146  20.671  19.257  0.00  0.00    -0.109 A 
ATOM     12  C   UNL     1      43.930  19.474  19.906  0.00  0.00    +0.176 A 
ATOM     15  C   UNL     1      47.259  17.863  19.432  0.00  0.00    -0.109 A 
BRANCH   4   5
ATOM      5  O   UNL     1      43.594  16.998  21.206  0.00  0.00    -0.287 OA
ATOM      6  C   UNL     1      43.634  16.404  22.505  0.00  0.00    +0.246 C 
ENDBRANCH   4   5
BRANCH  12  13
ATOM     13  O   UNL     1      42.726  19.213  20.477  0.00  0.00    -0.290 OA
ATOM     14  C   UNL     1      41.562  19.563  19.726  0.00  0.00    +0.246 C 
ENDBRANCH  12  13
ENDBRANCH  16  15
BRANCH  17  18
ATOM     18  O   UNL     1      47.856  17.105  16.780  0.00  0.00    -0.482 OA
ATOM     19  H   UNL     1      47.651  17.516  15.929  0.00  0.00    +0.401 HD
ENDBRANCH  17  18
BRANCH  21  22
ATOM     22  O   UNL     1      52.225  18.946  17.069  0.00  0.00    -0.309 OA
ATOM     23  C   UNL     1      52.235  19.188  15.660  0.00  0.00    +0.255 C 
ENDBRANCH  21  22
TORSDOF 5
ENDMDL
MODEL 2
REMARK VINA RESULT:      -6.1      4.128      6.857
REMARK  Name = ZINC01635104
REMARK  12 active torsions:
REMARK  status: ('A' for Active; 'I' for Inactive)
REMARK    1  A    between atoms: C1_1  and  C2_2
REMARK    2  A    between atoms: C4_4  and  O4_31
REMARK    3  A    between atoms: C7_7  and  C8_8
REMARK    4  A    between atoms: C9_9  and  O2_24
REMARK    5  A    between atoms: C11_11  and  O1_22
REMARK    6  A    between atoms: C15_15  and  C19_21
REMARK    7  A    between atoms: C16_17  and  C17_19
REMARK    8  A    between atoms: C18_20  and  N1_62
REMARK    9  A    between atoms: O1_22  and  C20_23
REMARK   10  A    between atoms: C24_28  and  O3_29
REMARK   11  A    between atoms: O3_29  and  C25_30
REMARK   12  A    between atoms: O4_31  and  C26_32
REMARK                            x       y       z     vdW  Elec       q    Type
REMARK                         _______ _______ _______ _____ _____    ______ ____
ROOT
ATOM     16  C   UNL     1      44.939  19.306  20.419  0.00  0.00    -0.072 A 
ATOM     17  C   UNL     1      45.950  20.052  21.033  0.00  0.00    +0.191 A 
ATOM     20  C   UNL     1      45.814  21.425  21.143  0.00  0.00    -0.081 A 
ATOM     21  C   UNL     1      44.677  22.048  20.658  0.00  0.00    +0.177 A 
ATOM     24  C   UNL     1      43.664  21.305  20.052  0.00  0.00    -0.173 A 
ATOM     25  C   UNL     1      42.445  22.035  19.551  0.00  0.00    +0.238 C 
ATOM     26  N   UNL     1      41.719  21.199  18.582  0.00  0.00    -0.392 N 
ATOM     27  H   UNL     1      42.307  21.060  17.751  0.00  0.00    +0.428 HD
ATOM     28  C   UNL     1      40.463  21.867  18.176  0.00  0.00    +0.326 C 
ATOM     29  C   UNL     1      41.422  19.884  19.187  0.00  0.00    +0.178 C 
ATOM     30  C   UNL     1      40.838  20.062  20.591  0.00  0.00    +0.089 C 
ATOM     31  C   UNL     1      42.732  19.100  19.271  0.00  0.00    +0.131 C 
ATOM     32  C   UNL     1      42.879  23.329  18.859  0.00  0.00    +0.098 C 
ATOM     33  C   UNL     1      43.794  19.942  19.929  0.00  0.00    -0.019 A 
ENDROOT
BRANCH  16  15
ATOM      1  C   UNL     1      43.938  17.598  22.503  0.00  0.00    +0.092 C 
ATOM      2  C   UNL     1      44.601  17.003  21.288  0.00  0.00    -0.004 A 
ATOM      3  C   UNL     1      44.728  15.624  21.182  0.00  0.00    -0.112 A 
ATOM      4  C   UNL     1      45.331  15.052  20.083  0.00  0.00    +0.191 A 
ATOM      7  C   UNL     1      45.828  15.870  19.049  0.00  0.00    -0.104 A 
ATOM      8  C   UNL     1      45.702  17.276  19.151  0.00  0.00    +0.048 A 
ATOM      9  C   UNL     1      46.196  18.091  18.121  0.00  0.00    -0.046 A 
ATOM     10  C   UNL     1      46.791  17.526  17.034  0.00  0.00    +0.080 A 
ATOM     11  C   UNL     1      46.921  16.145  16.923  0.00  0.00    -0.109 A 
ATOM     12  C   UNL     1      46.447  15.313  17.914  0.00  0.00    +0.176 A 
ATOM     15  C   UNL     1      45.079  17.837  20.292  0.00  0.00    -0.109 A 
BRANCH   4   5
ATOM      5  O   UNL     1      45.446  13.701  19.996  0.00  0.00    -0.287 OA
ATOM      6  C   UNL     1      45.324  12.959  21.211  0.00  0.00    +0.246 C 
ENDBRANCH   4   5
BRANCH  12  13
ATOM     13  O   UNL     1      46.579  13.966  17.796  0.00  0.00    -0.290 OA
ATOM     14  C   UNL     1      46.971  13.461  16.519  0.00  0.00    +0.246 C 
ENDBRANCH  12  13
ENDBRANCH  16  15
BRANCH  17  18
ATOM     18  O   UNL     1      47.060  19.433  21.514  0.00  0.00    -0.482 OA
ATOM     19  H   UNL     1      47.849  19.992  21.520  0.00  0.00    +0.401 HD
ENDBRANCH  17  18
BRANCH  21  22
ATOM     22  O   UNL     1      44.546  23.395  20.774  0.00  0.00    -0.309 OA
ATOM     23  C   UNL     1      45.738  24.143  21.022  0.00  0.00    +0.255 C 
ENDBRANCH  21  22
TORSDOF 5
ENDMDL
MODEL 3
REMARK VINA RESULT:      -6.0      2.500      4.154
REMARK  Name = ZINC01635104
REMARK  12 active torsions:
REMARK  status: ('A' for Active; 'I' for Inactive)
REMARK    1  A    between atoms: C1_1  and  C2_2
REMARK    2  A    between atoms: C4_4  and  O4_31
REMARK    3  A    between atoms: C7_7  and  C8_8
REMARK    4  A    between atoms: C9_9  and  O2_24
REMARK    5  A    between atoms: C11_11  and  O1_22
REMARK    6  A    between atoms: C15_15  and  C19_21
REMARK    7  A    between atoms: C16_17  and  C17_19
REMARK    8  A    between atoms: C18_20  and  N1_62
REMARK    9  A    between atoms: O1_22  and  C20_23
REMARK   10  A    between atoms: C24_28  and  O3_29
REMARK   11  A    between atoms: O3_29  and  C25_30
REMARK   12  A    between atoms: O4_31  and  C26_32
REMARK                            x       y       z     vdW  Elec       q    Type
REMARK                         _______ _______ _______ _____ _____    ______ ____
ROOT
ATOM     16  C   UNL     1      48.809  19.150  20.201  0.00  0.00    -0.072 A 
ATOM     17  C   UNL     1      48.762  17.976  20.958  0.00  0.00    +0.191 A 
ATOM     20  C   UNL     1      49.635  16.941  20.668  0.00  0.00    -0.081 A 
ATOM     21  C   UNL     1      50.554  17.079  19.642  0.00  0.00    +0.177 A 
ATOM     24  C   UNL     1      50.607  18.252  18.890  0.00  0.00    -0.173 A 
ATOM     25  C   UNL     1      51.634  18.351  17.792  0.00  0.00    +0.238 C 
ATOM     26  N   UNL     1      51.266  19.422  16.852  0.00  0.00    -0.392 N 
ATOM     27  H   UNL     1      50.392  19.167  16.378  0.00  0.00    +0.428 HD
ATOM     28  C   UNL     1      52.330  19.596  15.839  0.00  0.00    +0.326 C 
ATOM     29  C   UNL     1      51.062  20.683  17.594  0.00  0.00    +0.178 C 
ATOM     30  C   UNL     1      52.217  20.922  18.570  0.00  0.00    +0.089 C 
ATOM     31  C   UNL     1      49.750  20.563  18.371  0.00  0.00    +0.131 C 
ATOM     32  C   UNL     1      51.689  17.024  17.031  0.00  0.00    +0.098 C 
ATOM     33  C   UNL     1      49.738  19.282  19.164  0.00  0.00    -0.019 A 
ENDROOT
BRANCH  16  15
ATOM      1  C   UNL     1      49.616  21.239  22.002  0.00  0.00    +0.092 C 
ATOM      2  C   UNL     1      48.251  21.272  21.367  0.00  0.00    -0.004 A 
ATOM      3  C   UNL     1      47.383  22.317  21.658  0.00  0.00    -0.112 A 
ATOM      4  C   UNL     1      46.128  22.372  21.092  0.00  0.00    +0.191 A 
ATOM      7  C   UNL     1      45.712  21.360  20.206  0.00  0.00    -0.104 A 
ATOM      8  C   UNL     1      46.591  20.292  19.904  0.00  0.00    +0.048 A 
ATOM      9  C   UNL     1      46.177  19.284  19.021  0.00  0.00    -0.046 A 
ATOM     10  C   UNL     1      44.937  19.338  18.460  0.00  0.00    +0.080 A 
ATOM     11  C   UNL     1      44.064  20.383  18.749  0.00  0.00    -0.109 A 
ATOM     12  C   UNL     1      44.436  21.392  19.611  0.00  0.00    +0.176 A 
ATOM     15  C   UNL     1      47.875  20.260  20.501  0.00  0.00    -0.109 A 
BRANCH   4   5
ATOM      5  O   UNL     1      45.293  23.403  21.388  0.00  0.00    -0.287 OA
ATOM      6  C   UNL     1      45.732  24.716  21.033  0.00  0.00    +0.246 C 
ENDBRANCH   4   5
BRANCH  12  13
ATOM     13  O   UNL     1      43.577  22.407  19.887  0.00  0.00    -0.290 OA
ATOM     14  C   UNL     1      42.352  22.438  19.152  0.00  0.00    +0.246 C 
ENDBRANCH  12  13
ENDBRANCH  16  15
BRANCH  17  18
ATOM     18  O   UNL     1      47.864  17.849  21.969  0.00  0.00    -0.482 OA
ATOM     19  H   UNL     1      47.032  17.432  21.706  0.00  0.00    +0.401 HD
ENDBRANCH  17  18
BRANCH  21  22
ATOM     22  O   UNL     1      51.412  16.063  19.365  0.00  0.00    -0.309 OA
ATOM     23  C   UNL     1      52.123  15.496  20.468  0.00  0.00    +0.255 C 
ENDBRANCH  21  22
TORSDOF 5
ENDMDL
MODEL 4
REMARK VINA RESULT:      -5.5      3.300      6.421
REMARK  Name = ZINC01635104
REMARK  12 active torsions:
REMARK  status: ('A' for Active; 'I' for Inactive)
REMARK    1  A    between atoms: C1_1  and  C2_2
REMARK    2  A    between atoms: C4_4  and  O4_31
REMARK    3  A    between atoms: C7_7  and  C8_8
REMARK    4  A    between atoms: C9_9  and  O2_24
REMARK    5  A    between atoms: C11_11  and  O1_22
REMARK    6  A    between atoms: C15_15  and  C19_21
REMARK    7  A    between atoms: C16_17  and  C17_19
REMARK    8  A    between atoms: C18_20  and  N1_62
REMARK    9  A    between atoms: O1_22  and  C20_23
REMARK   10  A    between atoms: C24_28  and  O3_29
REMARK   11  A    between atoms: O3_29  and  C25_30
REMARK   12  A    between atoms: O4_31  and  C26_32
REMARK                            x       y       z     vdW  Elec       q    Type
REMARK                         _______ _______ _______ _____ _____    ______ ____
ROOT
ATOM     16  C   UNL     1      47.560  15.565  17.933  0.00  0.00    -0.072 A 
ATOM     17  C   UNL     1      46.952  15.304  16.702  0.00  0.00    +0.191 A 
ATOM     20  C   UNL     1      46.788  13.994  16.284  0.00  0.00    -0.081 A 
ATOM     21  C   UNL     1      47.213  12.953  17.092  0.00  0.00    +0.177 A 
ATOM     24  C   UNL     1      47.814  13.211  18.324  0.00  0.00    -0.173 A 
ATOM     25  C   UNL     1      48.250  12.039  19.165  0.00  0.00    +0.238 C 
ATOM     26  N   UNL     1      49.225  12.478  20.175  0.00  0.00    -0.392 N 
ATOM     27  H   UNL     1      50.079  12.798  19.702  0.00  0.00    +0.428 HD
ATOM     28  C   UNL     1      49.568  11.353  21.073  0.00  0.00    +0.326 C 
ATOM     29  C   UNL     1      48.659  13.597  20.957  0.00  0.00    +0.178 C 
ATOM     30  C   UNL     1      47.232  13.269  21.403  0.00  0.00    +0.089 C 
ATOM     31  C   UNL     1      48.645  14.835  20.060  0.00  0.00    +0.131 C 
ATOM     32  C   UNL     1      48.908  10.989  18.267  0.00  0.00    +0.098 C 
ATOM     33  C   UNL     1      47.991  14.509  18.742  0.00  0.00    -0.019 A 
ENDROOT
BRANCH  16  15
ATOM      1  C   UNL     1      45.493  16.848  19.463  0.00  0.00    +0.092 C 
ATOM      2  C   UNL     1      46.757  17.593  19.121  0.00  0.00    -0.004 A 
ATOM      3  C   UNL     1      46.917  18.905  19.549  0.00  0.00    -0.112 A 
ATOM      4  C   UNL     1      48.062  19.611  19.250  0.00  0.00    +0.191 A 
ATOM      7  C   UNL     1      49.089  19.001  18.503  0.00  0.00    -0.104 A 
ATOM      8  C   UNL     1      48.932  17.665  18.065  0.00  0.00    +0.048 A 
ATOM      9  C   UNL     1      49.954  17.057  17.321  0.00  0.00    -0.046 A 
ATOM     10  C   UNL     1      51.088  17.754  17.026  0.00  0.00    +0.080 A 
ATOM     11  C   UNL     1      51.252  19.068  17.451  0.00  0.00    -0.109 A 
ATOM     12  C   UNL     1      50.270  19.698  18.185  0.00  0.00    +0.176 A 
ATOM     15  C   UNL     1      47.744  16.963  18.384  0.00  0.00    -0.109 A 
BRANCH   4   5
ATOM      5  O   UNL     1      48.201  20.894  19.677  0.00  0.00    -0.287 OA
ATOM      6  C   UNL     1      47.836  21.170  21.031  0.00  0.00    +0.246 C 
ENDBRANCH   4   5
BRANCH  12  13
ATOM     13  O   UNL     1      50.441  20.982  18.596  0.00  0.00    -0.290 OA
ATOM     14  C   UNL     1      51.695  21.310  19.194  0.00  0.00    +0.246 C 
ENDBRANCH  12  13
ENDBRANCH  16  15
BRANCH  17  18
ATOM     18  O   UNL     1      46.528  16.329  15.917  0.00  0.00    -0.482 OA
ATOM     19  H   UNL     1      45.875  16.071  15.252  0.00  0.00    +0.401 HD
ENDBRANCH  17  18
BRANCH  21  22
ATOM     22  O   UNL     1      47.045  11.670  16.681  0.00  0.00    -0.309 OA
ATOM     23  C   UNL     1      46.962  11.446  15.272  0.00  0.00    +0.255 C 
ENDBRANCH  21  22
TORSDOF 5
ENDMDL
MODEL 5
REMARK VINA RESULT:      -5.3      3.567      6.546
REMARK  Name = ZINC01635104
REMARK  12 active torsions:
REMARK  status: ('A' for Active; 'I' for Inactive)
REMARK    1  A    between atoms: C1_1  and  C2_2
REMARK    2  A    between atoms: C4_4  and  O4_31
REMARK    3  A    between atoms: C7_7  and  C8_8
REMARK    4  A    between atoms: C9_9  and  O2_24
REMARK    5  A    between atoms: C11_11  and  O1_22
REMARK    6  A    between atoms: C15_15  and  C19_21
REMARK    7  A    between atoms: C16_17  and  C17_19
REMARK    8  A    between atoms: C18_20  and  N1_62
REMARK    9  A    between atoms: O1_22  and  C20_23
REMARK   10  A    between atoms: C24_28  and  O3_29
REMARK   11  A    between atoms: O3_29  and  C25_30
REMARK   12  A    between atoms: O4_31  and  C26_32
REMARK                            x       y       z     vdW  Elec       q    Type
REMARK                         _______ _______ _______ _____ _____    ______ ____
ROOT
ATOM     16  C   UNL     1      46.453  18.678  19.735  0.00  0.00    -0.072 A 
ATOM     17  C   UNL     1      47.210  19.761  19.278  0.00  0.00    +0.191 A 
ATOM     20  C   UNL     1      46.607  20.997  19.120  0.00  0.00    -0.081 A 
ATOM     21  C   UNL     1      45.266  21.156  19.426  0.00  0.00    +0.177 A 
ATOM     24  C   UNL     1      44.511  20.079  19.889  0.00  0.00    -0.173 A 
ATOM     25  C   UNL     1      43.059  20.313  20.216  0.00  0.00    +0.238 C 
ATOM     26  N   UNL     1      42.338  19.030  20.255  0.00  0.00    -0.392 N 
ATOM     27  H   UNL     1      42.337  18.617  19.315  0.00  0.00    +0.428 HD
ATOM     28  C   UNL     1      40.939  19.247  20.686  0.00  0.00    +0.326 C 
ATOM     29  C   UNL     1      43.019  18.107  21.187  0.00  0.00    +0.178 C 
ATOM     30  C   UNL     1      43.335  18.816  22.505  0.00  0.00    +0.089 C 
ATOM     31  C   UNL     1      44.320  17.650  20.525  0.00  0.00    +0.131 C 
ATOM     32  C   UNL     1      42.433  21.197  19.135  0.00  0.00    +0.098 C 
ATOM     33  C   UNL     1      45.099  18.845  20.040  0.00  0.00    -0.019 A 
ENDROOT
BRANCH  16  15
ATOM      1  C   UNL     1      47.626  17.972  22.262  0.00  0.00    +0.092 C 
ATOM      2  C   UNL     1      47.658  16.998  21.113  0.00  0.00    -0.004 A 
ATOM      3  C   UNL     1      48.259  15.757  21.281  0.00  0.00    -0.112 A 
ATOM      4  C   UNL     1      48.304  14.847  20.248  0.00  0.00    +0.191 A 
ATOM      7  C   UNL     1      47.734  15.172  19.001  0.00  0.00    -0.104 A 
ATOM      8  C   UNL     1      47.120  16.434  18.822  0.00  0.00    +0.048 A 
ATOM      9  C   UNL     1      46.551  16.758  17.581  0.00  0.00    -0.046 A 
ATOM     10  C   UNL     1      46.594  15.858  16.559  0.00  0.00    +0.080 A 
ATOM     11  C   UNL     1      47.196  14.614  16.723  0.00  0.00    -0.109 A 
ATOM     12  C   UNL     1      47.763  14.261  17.927  0.00  0.00    +0.176 A 
ATOM     15  C   UNL     1      47.089  17.351  19.901  0.00  0.00    -0.109 A 
BRANCH   4   5
ATOM      5  O   UNL     1      48.896  13.638  20.431  0.00  0.00    -0.287 OA
ATOM      6  C   UNL     1      48.551  12.920  21.617  0.00  0.00    +0.246 C 
ENDBRANCH   4   5
BRANCH  12  13
ATOM     13  O   UNL     1      48.348  13.044  18.077  0.00  0.00    -0.290 OA
ATOM     14  C   UNL     1      47.568  11.901  17.722  0.00  0.00    +0.246 C 
ENDBRANCH  12  13
ENDBRANCH  16  15
BRANCH  17  18
ATOM     18  O   UNL     1      48.527  19.601  18.987  0.00  0.00    -0.482 OA
ATOM     19  H   UNL     1      48.984  20.425  18.767  0.00  0.00    +0.401 HD
ENDBRANCH  17  18
BRANCH  21  22
ATOM     22  O   UNL     1      44.680  22.372  19.275  0.00  0.00    -0.309 OA
ATOM     23  C   UNL     1      45.078  23.401  20.185  0.00  0.00    +0.255 C 
ENDBRANCH  21  22
TORSDOF 5
ENDMDL
MODEL 6
REMARK VINA RESULT:      -5.3      3.893      5.596
REMARK  Name = ZINC01635104
REMARK  12 active torsions:
REMARK  status: ('A' for Active; 'I' for Inactive)
REMARK    1  A    between atoms: C1_1  and  C2_2
REMARK    2  A    between atoms: C4_4  and  O4_31
REMARK    3  A    between atoms: C7_7  and  C8_8
REMARK    4  A    between atoms: C9_9  and  O2_24
REMARK    5  A    between atoms: C11_11  and  O1_22
REMARK    6  A    between atoms: C15_15  and  C19_21
REMARK    7  A    between atoms: C16_17  and  C17_19
REMARK    8  A    between atoms: C18_20  and  N1_62
REMARK    9  A    between atoms: O1_22  and  C20_23
REMARK   10  A    between atoms: C24_28  and  O3_29
REMARK   11  A    between atoms: O3_29  and  C25_30
REMARK   12  A    between atoms: O4_31  and  C26_32
REMARK                            x       y       z     vdW  Elec       q    Type
REMARK                         _______ _______ _______ _____ _____    ______ ____
ROOT
ATOM     16  C   UNL     1      46.865  15.676  20.704  0.00  0.00    -0.072 A 
ATOM     17  C   UNL     1      47.968  15.819  21.552  0.00  0.00    +0.191 A 
ATOM     20  C   UNL     1      49.035  14.944  21.438  0.00  0.00    -0.081 A 
ATOM     21  C   UNL     1      49.010  13.945  20.480  0.00  0.00    +0.177 A 
ATOM     24  C   UNL     1      47.914  13.804  19.629  0.00  0.00    -0.173 A 
ATOM     25  C   UNL     1      47.945  12.704  18.600  0.00  0.00    +0.238 C 
ATOM     26  N   UNL     1      46.583  12.429  18.114  0.00  0.00    -0.392 N 
ATOM     27  H   UNL     1      46.020  12.055  18.887  0.00  0.00    +0.428 HD
ATOM     28  C   UNL     1      46.625  11.431  17.023  0.00  0.00    +0.326 C 
ATOM     29  C   UNL     1      45.967  13.683  17.631  0.00  0.00    +0.178 C 
ATOM     30  C   UNL     1      46.936  14.438  16.719  0.00  0.00    +0.089 C 
ATOM     31  C   UNL     1      45.635  14.542  18.852  0.00  0.00    +0.131 C 
ATOM     32  C   UNL     1      48.508  11.432  19.236  0.00  0.00    +0.098 C 
ATOM     33  C   UNL     1      46.845  14.662  19.741  0.00  0.00    -0.019 A 
ENDROOT
BRANCH  16  15
ATOM      1  C   UNL     1      44.714  15.051  22.505  0.00  0.00    +0.092 C 
ATOM      2  C   UNL     1      44.675  16.315  21.687  0.00  0.00    -0.004 A 
ATOM      3  C   UNL     1      43.592  17.178  21.807  0.00  0.00    -0.112 A 
ATOM      4  C   UNL     1      43.529  18.340  21.071  0.00  0.00    +0.191 A 
ATOM      7  C   UNL     1      44.573  18.667  20.183  0.00  0.00    -0.104 A 
ATOM      8  C   UNL     1      45.679  17.794  20.056  0.00  0.00    +0.048 A 
ATOM      9  C   UNL     1      46.719  18.118  19.172  0.00  0.00    -0.046 A 
ATOM     10  C   UNL     1      46.659  19.268  18.445  0.00  0.00    +0.080 A 
ATOM     11  C   UNL     1      45.576  20.134  18.561  0.00  0.00    -0.109 A 
ATOM     12  C   UNL     1      44.536  19.849  19.419  0.00  0.00    +0.176 A 
ATOM     15  C   UNL     1      45.717  16.604  20.824  0.00  0.00    -0.109 A 
BRANCH   4   5
ATOM      5  O   UNL     1      42.463  19.172  21.201  0.00  0.00    -0.287 OA
ATOM      6  C   UNL     1      41.165  18.573  21.164  0.00  0.00    +0.246 C 
ENDBRANCH   4   5
BRANCH  12  13
ATOM     13  O   UNL     1      43.484  20.702  19.525  0.00  0.00    -0.290 OA
ATOM     14  C   UNL     1      43.786  22.083  19.730  0.00  0.00    +0.246 C 
ENDBRANCH  12  13
ENDBRANCH  16  15
BRANCH  17  18
ATOM     18  O   UNL     1      47.991  16.807  22.484  0.00  0.00    -0.482 OA
ATOM     19  H   UNL     1      48.879  17.130  22.692  0.00  0.00    +0.401 HD
ENDBRANCH  17  18
BRANCH  21  22
ATOM     22  O   UNL     1      50.061  13.092  20.368  0.00  0.00    -0.309 OA
ATOM     23  C   UNL     1      51.360  13.677  20.249  0.00  0.00    +0.255 C 
ENDBRANCH  21  22
TORSDOF 5
ENDMDL
MODEL 7
REMARK VINA RESULT:      -5.3      4.087      6.027
REMARK  Name = ZINC01635104
REMARK  12 active torsions:
REMARK  status: ('A' for Active; 'I' for Inactive)
REMARK    1  A    between atoms: C1_1  and  C2_2
REMARK    2  A    between atoms: C4_4  and  O4_31
REMARK    3  A    between atoms: C7_7  and  C8_8
REMARK    4  A    between atoms: C9_9  and  O2_24
REMARK    5  A    between atoms: C11_11  and  O1_22
REMARK    6  A    between atoms: C15_15  and  C19_21
REMARK    7  A    between atoms: C16_17  and  C17_19
REMARK    8  A    between atoms: C18_20  and  N1_62
REMARK    9  A    between atoms: O1_22  and  C20_23
REMARK   10  A    between atoms: C24_28  and  O3_29
REMARK   11  A    between atoms: O3_29  and  C25_30
REMARK   12  A    between atoms: O4_31  and  C26_32
REMARK                            x       y       z     vdW  Elec       q    Type
REMARK                         _______ _______ _______ _____ _____    ______ ____
ROOT
ATOM     16  C   UNL     1      47.122  14.711  20.337  0.00  0.00    -0.072 A 
ATOM     17  C   UNL     1      48.274  14.783  21.125  0.00  0.00    +0.191 A 
ATOM     20  C   UNL     1      49.299  13.874  20.922  0.00  0.00    -0.081 A 
ATOM     21  C   UNL     1      49.183  12.911  19.934  0.00  0.00    +0.177 A 
ATOM     24  C   UNL     1      48.037  12.841  19.142  0.00  0.00    -0.173 A 
ATOM     25  C   UNL     1      47.969  11.779  18.076  0.00  0.00    +0.238 C 
ATOM     26  N   UNL     1      46.574  11.571  17.659  0.00  0.00    -0.392 N 
ATOM     27  H   UNL     1      46.040  11.191  18.449  0.00  0.00    +0.428 HD
ATOM     28  C   UNL     1      46.517  10.611  16.534  0.00  0.00    +0.326 C 
ATOM     29  C   UNL     1      45.980  12.862  17.254  0.00  0.00    +0.178 C 
ATOM     30  C   UNL     1      46.926  13.614  16.315  0.00  0.00    +0.089 C 
ATOM     31  C   UNL     1      45.749  13.689  18.519  0.00  0.00    +0.131 C 
ATOM     32  C   UNL     1      48.518  10.465  18.637  0.00  0.00    +0.098 C 
ATOM     33  C   UNL     1      47.010  13.733  19.343  0.00  0.00    -0.019 A 
ENDROOT
BRANCH  16  15
ATOM      1  C   UNL     1      45.184  14.217  22.401  0.00  0.00    +0.092 C 
ATOM      2  C   UNL     1      45.079  15.450  21.542  0.00  0.00    -0.004 A 
ATOM      3  C   UNL     1      44.039  16.347  21.753  0.00  0.00    -0.112 A 
ATOM      4  C   UNL     1      43.917  17.482  20.982  0.00  0.00    +0.191 A 
ATOM      7  C   UNL     1      44.857  17.744  19.965  0.00  0.00    -0.104 A 
ATOM      8  C   UNL     1      45.919  16.835  19.745  0.00  0.00    +0.048 A 
ATOM      9  C   UNL     1      46.855  17.096  18.734  0.00  0.00    -0.046 A 
ATOM     10  C   UNL     1      46.737  18.219  17.971  0.00  0.00    +0.080 A 
ATOM     11  C   UNL     1      45.696  19.120  18.178  0.00  0.00    -0.109 A 
ATOM     12  C   UNL     1      44.758  18.897  19.163  0.00  0.00    +0.176 A 
ATOM     15  C   UNL     1      46.019  15.675  20.552  0.00  0.00    -0.109 A 
BRANCH   4   5
ATOM      5  O   UNL     1      42.894  18.348  21.202  0.00  0.00    -0.287 OA
ATOM      6  C   UNL     1      42.804  18.928  22.505  0.00  0.00    +0.246 C 
ENDBRANCH   4   5
BRANCH  12  13
ATOM     13  O   UNL     1      43.747  19.783  19.357  0.00  0.00    -0.290 OA
ATOM     14  C   UNL     1      44.106  21.159  19.494  0.00  0.00    +0.246 C 
ENDBRANCH  12  13
ENDBRANCH  16  15
BRANCH  17  18
ATOM     18  O   UNL     1      48.386  15.736  22.087  0.00  0.00    -0.482 OA
ATOM     19  H   UNL     1      47.556  15.933  22.543  0.00  0.00    +0.401 HD
ENDBRANCH  17  18
BRANCH  21  22
ATOM     22  O   UNL     1      50.193  12.026  19.735  0.00  0.00    -0.309 OA
ATOM     23  C   UNL     1      51.516  12.560  19.652  0.00  0.00    +0.255 C 
ENDBRANCH  21  22
TORSDOF 5
ENDMDL
MODEL 8
REMARK VINA RESULT:      -5.2      3.486      5.843
REMARK  Name = ZINC01635104
REMARK  12 active torsions:
REMARK  status: ('A' for Active; 'I' for Inactive)
REMARK    1  A    between atoms: C1_1  and  C2_2
REMARK    2  A    between atoms: C4_4  and  O4_31
REMARK    3  A    between atoms: C7_7  and  C8_8
REMARK    4  A    between atoms: C9_9  and  O2_24
REMARK    5  A    between atoms: C11_11  and  O1_22
REMARK    6  A    between atoms: C15_15  and  C19_21
REMARK    7  A    between atoms: C16_17  and  C17_19
REMARK    8  A    between atoms: C18_20  and  N1_62
REMARK    9  A    between atoms: O1_22  and  C20_23
REMARK   10  A    between atoms: C24_28  and  O3_29
REMARK   11  A    between atoms: O3_29  and  C25_30
REMARK   12  A    between atoms: O4_31  and  C26_32
REMARK                            x       y       z     vdW  Elec       q    Type
REMARK                         _______ _______ _______ _____ _____    ______ ____
ROOT
ATOM     16  C   UNL     1      47.523  15.833  19.739  0.00  0.00    -0.072 A 
ATOM     17  C   UNL     1      48.618  16.010  20.589  0.00  0.00    +0.191 A 
ATOM     20  C   UNL     1      49.545  14.991  20.730  0.00  0.00    -0.081 A 
ATOM     21  C   UNL     1      49.389  13.813  20.019  0.00  0.00    +0.177 A 
ATOM     24  C   UNL     1      48.301  13.637  19.165  0.00  0.00    -0.173 A 
ATOM     25  C   UNL     1      48.188  12.338  18.410  0.00  0.00    +0.238 C 
ATOM     26  N   UNL     1      46.810  12.154  17.928  0.00  0.00    -0.392 N 
ATOM     27  H   UNL     1      46.182  12.050  18.734  0.00  0.00    +0.428 HD
ATOM     28  C   UNL     1      46.723  10.937  17.091  0.00  0.00    +0.326 C 
ATOM     29  C   UNL     1      46.396  13.338  17.145  0.00  0.00    +0.178 C 
ATOM     30  C   UNL     1      47.484  13.721  16.140  0.00  0.00    +0.089 C 
ATOM     31  C   UNL     1      46.172  14.491  18.124  0.00  0.00    +0.131 C 
ATOM     32  C   UNL     1      48.543  11.179  19.343  0.00  0.00    +0.098 C 
ATOM     33  C   UNL     1      47.370  14.640  19.027  0.00  0.00    -0.019 A 
ENDROOT
BRANCH  16  15
ATOM      1  C   UNL     1      47.851  17.789  17.658  0.00  0.00    +0.092 C 
ATOM      2  C   UNL     1      46.670  17.865  18.590  0.00  0.00    -0.004 A 
ATOM      3  C   UNL     1      45.741  18.886  18.439  0.00  0.00    -0.112 A 
ATOM      4  C   UNL     1      44.652  18.981  19.277  0.00  0.00    +0.191 A 
ATOM      7  C   UNL     1      44.470  18.033  20.303  0.00  0.00    -0.104 A 
ATOM      8  C   UNL     1      45.413  16.989  20.463  0.00  0.00    +0.048 A 
ATOM      9  C   UNL     1      45.232  16.044  21.483  0.00  0.00    -0.046 A 
ATOM     10  C   UNL     1      44.155  16.136  22.312  0.00  0.00    +0.080 A 
ATOM     11  C   UNL     1      43.222  17.158  22.165  0.00  0.00    -0.109 A 
ATOM     12  C   UNL     1      43.366  18.104  21.174  0.00  0.00    +0.176 A 
ATOM     15  C   UNL     1      46.524  16.917  19.588  0.00  0.00    -0.109 A 
BRANCH   4   5
ATOM      5  O   UNL     1      43.753  19.987  19.115  0.00  0.00    -0.287 OA
ATOM      6  C   UNL     1      44.229  21.320  19.311  0.00  0.00    +0.246 C 
ENDBRANCH   4   5
BRANCH  12  13
ATOM     13  O   UNL     1      42.449  19.097  21.038  0.00  0.00    -0.290 OA
ATOM     14  C   UNL     1      41.074  18.735  21.177  0.00  0.00    +0.246 C 
ENDBRANCH  12  13
ENDBRANCH  16  15
BRANCH  17  18
ATOM     18  O   UNL     1      48.770  17.171  21.277  0.00  0.00    -0.482 OA
ATOM     19  H   UNL     1      48.288  17.197  22.116  0.00  0.00    +0.401 HD
ENDBRANCH  17  18
BRANCH  21  22
ATOM     22  O   UNL     1      50.304  12.818  20.155  0.00  0.00    -0.309 OA
ATOM     23  C   UNL     1      51.672  13.157  19.914  0.00  0.00    +0.255 C 
ENDBRANCH  21  22
TORSDOF 5
ENDMDL
MODEL 9
REMARK VINA RESULT:      -5.1      3.186      5.583
REMARK  Name = ZINC01635104
REMARK  12 active torsions:
REMARK  status: ('A' for Active; 'I' for Inactive)
REMARK    1  A    between atoms: C1_1  and  C2_2
REMARK    2  A    between atoms: C4_4  and  O4_31
REMARK    3  A    between atoms: C7_7  and  C8_8
REMARK    4  A    between atoms: C9_9  and  O2_24
REMARK    5  A    between atoms: C11_11  and  O1_22
REMARK    6  A    between atoms: C15_15  and  C19_21
REMARK    7  A    between atoms: C16_17  and  C17_19
REMARK    8  A    between atoms: C18_20  and  N1_62
REMARK    9  A    between atoms: O1_22  and  C20_23
REMARK   10  A    between atoms: C24_28  and  O3_29
REMARK   11  A    between atoms: O3_29  and  C25_30
REMARK   12  A    between atoms: O4_31  and  C26_32
REMARK                            x       y       z     vdW  Elec       q    Type
REMARK                         _______ _______ _______ _____ _____    ______ ____
ROOT
ATOM     16  C   UNL     1      47.366  15.894  18.248  0.00  0.00    -0.072 A 
ATOM     17  C   UNL     1      46.941  15.678  16.934  0.00  0.00    +0.191 A 
ATOM     20  C   UNL     1      46.890  14.388  16.435  0.00  0.00    -0.081 A 
ATOM     21  C   UNL     1      47.245  13.321  17.243  0.00  0.00    +0.177 A 
ATOM     24  C   UNL     1      47.663  13.533  18.557  0.00  0.00    -0.173 A 
ATOM     25  C   UNL     1      48.029  12.334  19.392  0.00  0.00    +0.238 C 
ATOM     26  N   UNL     1      48.840  12.752  20.547  0.00  0.00    -0.392 N 
ATOM     27  H   UNL     1      49.735  13.127  20.211  0.00  0.00    +0.428 HD
ATOM     28  C   UNL     1      49.104  11.594  21.428  0.00  0.00    +0.326 C 
ATOM     29  C   UNL     1      48.127  13.808  21.296  0.00  0.00    +0.178 C 
ATOM     30  C   UNL     1      46.668  13.407  21.526  0.00  0.00    +0.089 C 
ATOM     31  C   UNL     1      48.182  15.091  20.466  0.00  0.00    +0.131 C 
ATOM     32  C   UNL     1      48.846  11.357  18.544  0.00  0.00    +0.098 C 
ATOM     33  C   UNL     1      47.726  14.812  19.057  0.00  0.00    -0.019 A 
ENDROOT
BRANCH  16  15
ATOM      1  C   UNL     1      49.755  17.451  17.891  0.00  0.00    +0.092 C 
ATOM      2  C   UNL     1      48.573  18.033  18.621  0.00  0.00    -0.004 A 
ATOM      3  C   UNL     1      48.644  19.327  19.123  0.00  0.00    -0.112 A 
ATOM      4  C   UNL     1      47.579  19.884  19.796  0.00  0.00    +0.191 A 
ATOM      7  C   UNL     1      46.398  19.139  19.982  0.00  0.00    -0.104 A 
ATOM      8  C   UNL     1      46.318  17.821  19.473  0.00  0.00    +0.048 A 
ATOM      9  C   UNL     1      45.142  17.079  19.657  0.00  0.00    -0.046 A 
ATOM     10  C   UNL     1      44.087  17.629  20.321  0.00  0.00    +0.080 A 
ATOM     11  C   UNL     1      44.155  18.924  20.826  0.00  0.00    -0.109 A 
ATOM     12  C   UNL     1      45.293  19.684  20.664  0.00  0.00    +0.176 A 
ATOM     15  C   UNL     1      47.428  17.272  18.786  0.00  0.00    -0.109 A 
BRANCH   4   5
ATOM      5  O   UNL     1      47.667  21.151  20.280  0.00  0.00    -0.287 OA
ATOM      6  C   UNL     1      48.613  21.382  21.326  0.00  0.00    +0.246 C 
ENDBRANCH   4   5
BRANCH  12  13
ATOM     13  O   UNL     1      45.348  20.947  21.160  0.00  0.00    -0.290 OA
ATOM     14  C   UNL     1      44.835  21.150  22.477  0.00  0.00    +0.246 C 
ENDBRANCH  12  13
ENDBRANCH  16  15
BRANCH  17  18
ATOM     18  O   UNL     1      46.585  16.728  16.149  0.00  0.00    -0.482 OA
ATOM     19  H   UNL     1      47.316  17.325  15.935  0.00  0.00    +0.401 HD
ENDBRANCH  17  18
BRANCH  21  22
ATOM     22  O   UNL     1      47.188  12.056  16.752  0.00  0.00    -0.309 OA
ATOM     23  C   UNL     1      45.895  11.552  16.407  0.00  0.00    +0.255 C 
ENDBRANCH  21  22
TORSDOF 5
ENDMDL
