MODEL 1
REMARK VINA RESULT:      -6.5      0.000      0.000
REMARK  Name = ZINC95486227
REMARK  6 active torsions:
REMARK  status: ('A' for Active; 'I' for Inactive)
REMARK    1  A    between atoms: C1_1  and  C2_2
REMARK    2  A    between atoms: C6_7  and  C20_28
REMARK    3  A    between atoms: C7_8  and  C8_10
REMARK    4  A    between atoms: C12_14  and  O1_16
REMARK    5  A    between atoms: O1_16  and  C14_17
REMARK    6  A    between atoms: C20_28  and  C21_29
REMARK                            x       y       z     vdW  Elec       q    Type
REMARK                         _______ _______ _______ _____ _____    ______ ____
ROOT
ATOM      1  C   UNL     1      43.899  18.678  19.852  0.00  0.00    +0.022 C 
ATOM      2  C   UNL     1      44.510  19.600  18.796  0.00  0.00    +0.007 C 
ATOM      3  C   UNL     1      44.371  21.060  19.193  0.00  0.00    +0.052 C 
ATOM      4  C   UNL     1      45.509  21.564  20.057  0.00  0.00    +0.099 C 
ATOM      5  C   UNL     1      46.861  21.261  19.417  0.00  0.00    +0.095 C 
ATOM      6  C   UNL     1      46.998  19.732  19.361  0.00  0.00    -0.084 C 
ATOM     10  C   UNL     1      46.906  19.160  20.748  0.00  0.00    +0.408 C 
ATOM     11  C   UNL     1      46.141  19.794  21.749  0.00  0.00    -0.120 C 
ATOM     12  O   UNL     1      47.511  18.143  21.026  0.00  0.00    -0.435 OA
ATOM     13  O   UNL     1      45.364  22.962  20.344  0.00  0.00    -0.352 OA
ATOM     14  C   UNL     1      44.599  22.996  21.563  0.00  0.00    +0.411 C 
ATOM     15  O   UNL     1      44.696  21.707  22.189  0.00  0.00    -0.299 OA
ATOM     16  C   UNL     1      45.480  20.924  21.432  0.00  0.00    +0.136 C 
ATOM     17  C   UNL     1      45.921  19.172  18.441  0.00  0.00    +0.079 C 
ENDROOT
BRANCH  17  18
ATOM     18  C   UNL     1      45.998  17.667  18.422  0.00  0.00    -0.042 A 
ATOM     19  C   UNL     1      46.590  17.021  17.352  0.00  0.00    +0.012 A 
ATOM     20  C   UNL     1      46.664  15.637  17.330  0.00  0.00    +0.069 A 
ATOM     21  C   UNL     1      46.141  14.899  18.386  0.00  0.00    -0.003 A 
ATOM     22  O   UNL     1      46.335  13.571  18.130  0.00  0.00    -0.300 OA
ATOM     23  C   UNL     1      46.615  13.490  16.719  0.00  0.00    +0.429 C 
ATOM     24  C   UNL     1      45.548  15.551  19.459  0.00  0.00    +0.151 A 
ATOM     27  O   UNL     1      47.186  14.775  16.410  0.00  0.00    -0.306 OA
ATOM     28  C   UNL     1      45.482  16.937  19.476  0.00  0.00    -0.024 A 
BRANCH  24  25
ATOM     25  O   UNL     1      45.035  14.833  20.494  0.00  0.00    -0.307 OA
ATOM     26  C   UNL     1      44.776  15.540  21.709  0.00  0.00    +0.244 C 
ENDBRANCH  24  25
ENDBRANCH  17  18
BRANCH   6   7
ATOM      7  C   UNL     1      48.378  19.387  18.778  0.00  0.00    +0.094 C 
BRANCH   7   8
ATOM      8  C   UNL     1      49.363  20.465  19.151  0.00  0.00    -0.066 C 
ATOM      9  C   UNL     1      50.345  20.764  18.338  0.00  0.00    +0.028 C 
ENDBRANCH   7   8
ENDBRANCH   6   7
TORSDOF 4
ENDMDL
MODEL 2
REMARK VINA RESULT:      -6.3      0.632      2.066
REMARK  Name = ZINC95486227
REMARK  6 active torsions:
REMARK  status: ('A' for Active; 'I' for Inactive)
REMARK    1  A    between atoms: C1_1  and  C2_2
REMARK    2  A    between atoms: C6_7  and  C20_28
REMARK    3  A    between atoms: C7_8  and  C8_10
REMARK    4  A    between atoms: C12_14  and  O1_16
REMARK    5  A    between atoms: O1_16  and  C14_17
REMARK    6  A    between atoms: C20_28  and  C21_29
REMARK                            x       y       z     vdW  Elec       q    Type
REMARK                         _______ _______ _______ _____ _____    ______ ____
ROOT
ATOM      1  C   UNL     1      43.877  18.720  19.921  0.00  0.00    +0.022 C 
ATOM      2  C   UNL     1      44.499  19.625  18.858  0.00  0.00    +0.007 C 
ATOM      3  C   UNL     1      44.373  21.090  19.238  0.00  0.00    +0.052 C 
ATOM      4  C   UNL     1      45.513  21.593  20.099  0.00  0.00    +0.099 C 
ATOM      5  C   UNL     1      46.864  21.271  19.465  0.00  0.00    +0.095 C 
ATOM      6  C   UNL     1      46.987  19.740  19.426  0.00  0.00    -0.084 C 
ATOM     10  C   UNL     1      46.887  19.183  20.819  0.00  0.00    +0.408 C 
ATOM     11  C   UNL     1      46.126  19.836  21.812  0.00  0.00    -0.120 C 
ATOM     12  O   UNL     1      47.482  18.164  21.109  0.00  0.00    -0.435 OA
ATOM     13  O   UNL     1      45.381  22.995  20.371  0.00  0.00    -0.352 OA
ATOM     14  C   UNL     1      44.614  23.049  21.588  0.00  0.00    +0.411 C 
ATOM     15  O   UNL     1      44.698  21.767  22.228  0.00  0.00    -0.299 OA
ATOM     16  C   UNL     1      45.475  20.968  21.481  0.00  0.00    +0.136 C 
ATOM     17  C   UNL     1      45.906  19.180  18.511  0.00  0.00    +0.079 C 
ENDROOT
BRANCH  17  18
ATOM     18  C   UNL     1      45.970  17.674  18.508  0.00  0.00    -0.042 A 
ATOM     19  C   UNL     1      45.365  16.958  19.524  0.00  0.00    +0.012 A 
ATOM     20  C   UNL     1      45.421  15.573  19.527  0.00  0.00    +0.069 A 
ATOM     21  C   UNL     1      46.086  14.904  18.504  0.00  0.00    -0.003 A 
ATOM     22  O   UNL     1      46.000  13.560  18.732  0.00  0.00    -0.300 OA
ATOM     23  C   UNL     1      45.627  13.429  20.117  0.00  0.00    +0.429 C 
ATOM     24  C   UNL     1      46.692  15.628  17.485  0.00  0.00    +0.151 A 
ATOM     27  O   UNL     1      44.917  14.649  20.397  0.00  0.00    -0.306 OA
ATOM     28  C   UNL     1      46.627  17.014  17.487  0.00  0.00    -0.024 A 
BRANCH  24  25
ATOM     25  O   UNL     1      47.343  14.979  16.483  0.00  0.00    -0.307 OA
ATOM     26  C   UNL     1      48.686  14.565  16.743  0.00  0.00    +0.244 C 
ENDBRANCH  24  25
ENDBRANCH  17  18
BRANCH   6   7
ATOM      7  C   UNL     1      48.365  19.376  18.850  0.00  0.00    +0.094 C 
BRANCH   7   8
ATOM      8  C   UNL     1      49.333  20.499  19.120  0.00  0.00    -0.066 C 
ATOM      9  C   UNL     1      50.330  20.715  18.299  0.00  0.00    +0.028 C 
ENDBRANCH   7   8
ENDBRANCH   6   7
TORSDOF 4
ENDMDL
MODEL 3
REMARK VINA RESULT:      -6.2      2.361      4.532
REMARK  Name = ZINC95486227
REMARK  6 active torsions:
REMARK  status: ('A' for Active; 'I' for Inactive)
REMARK    1  A    between atoms: C1_1  and  C2_2
REMARK    2  A    between atoms: C6_7  and  C20_28
REMARK    3  A    between atoms: C7_8  and  C8_10
REMARK    4  A    between atoms: C12_14  and  O1_16
REMARK    5  A    between atoms: O1_16  and  C14_17
REMARK    6  A    between atoms: C20_28  and  C21_29
REMARK                            x       y       z     vdW  Elec       q    Type
REMARK                         _______ _______ _______ _____ _____    ______ ____
ROOT
ATOM      1  C   UNL     1      45.580  18.048  18.892  0.00  0.00    +0.022 C 
ATOM      2  C   UNL     1      45.181  19.422  18.352  0.00  0.00    +0.007 C 
ATOM      3  C   UNL     1      43.685  19.651  18.478  0.00  0.00    +0.052 C 
ATOM      4  C   UNL     1      43.272  20.237  19.813  0.00  0.00    +0.099 C 
ATOM      5  C   UNL     1      44.081  21.489  20.137  0.00  0.00    +0.095 C 
ATOM      6  C   UNL     1      45.547  21.050  20.286  0.00  0.00    -0.084 C 
ATOM     10  C   UNL     1      45.663  20.022  21.377  0.00  0.00    +0.408 C 
ATOM     11  C   UNL     1      44.598  19.145  21.669  0.00  0.00    -0.120 C 
ATOM     12  O   UNL     1      46.682  19.950  22.036  0.00  0.00    -0.435 OA
ATOM     13  O   UNL     1      41.862  20.497  19.853  0.00  0.00    -0.352 OA
ATOM     14  C   UNL     1      41.291  19.277  20.361  0.00  0.00    +0.411 C 
ATOM     15  O   UNL     1      42.332  18.533  21.012  0.00  0.00    -0.299 OA
ATOM     16  C   UNL     1      43.471  19.238  20.937  0.00  0.00    +0.136 C 
ATOM     17  C   UNL     1      46.042  20.519  18.948  0.00  0.00    +0.079 C 
ENDROOT
BRANCH  17  18
ATOM     18  C   UNL     1      47.459  20.024  19.089  0.00  0.00    -0.042 A 
ATOM     19  C   UNL     1      48.503  20.929  19.134  0.00  0.00    +0.012 A 
ATOM     20  C   UNL     1      49.808  20.479  19.263  0.00  0.00    +0.069 A 
ATOM     21  C   UNL     1      50.065  19.115  19.348  0.00  0.00    -0.003 A 
ATOM     22  O   UNL     1      51.413  18.930  19.469  0.00  0.00    -0.300 OA
ATOM     23  C   UNL     1      52.009  20.171  19.046  0.00  0.00    +0.429 C 
ATOM     24  C   UNL     1      49.013  18.209  19.303  0.00  0.00    +0.151 A 
ATOM     27  O   UNL     1      50.994  21.152  19.330  0.00  0.00    -0.306 OA
ATOM     28  C   UNL     1      47.709  18.668  19.178  0.00  0.00    -0.024 A 
BRANCH  24  25
ATOM     25  O   UNL     1      49.259  16.874  19.386  0.00  0.00    -0.307 OA
ATOM     26  C   UNL     1      48.971  16.088  18.228  0.00  0.00    +0.244 C 
ENDBRANCH  24  25
ENDBRANCH  17  18
BRANCH   6   7
ATOM      7  C   UNL     1      46.386  22.277  20.677  0.00  0.00    +0.094 C 
BRANCH   7   8
ATOM      8  C   UNL     1      45.470  23.429  21.002  0.00  0.00    -0.066 C 
ATOM      9  C   UNL     1      45.932  24.654  21.004  0.00  0.00    +0.028 C 
ENDBRANCH   7   8
ENDBRANCH   6   7
TORSDOF 4
ENDMDL
MODEL 4
REMARK VINA RESULT:      -6.1      2.550      4.655
REMARK  Name = ZINC95486227
REMARK  6 active torsions:
REMARK  status: ('A' for Active; 'I' for Inactive)
REMARK    1  A    between atoms: C1_1  and  C2_2
REMARK    2  A    between atoms: C6_7  and  C20_28
REMARK    3  A    between atoms: C7_8  and  C8_10
REMARK    4  A    between atoms: C12_14  and  O1_16
REMARK    5  A    between atoms: O1_16  and  C14_17
REMARK    6  A    between atoms: C20_28  and  C21_29
REMARK                            x       y       z     vdW  Elec       q    Type
REMARK                         _______ _______ _______ _____ _____    ______ ____
ROOT
ATOM      1  C   UNL     1      45.463  18.034  19.013  0.00  0.00    +0.022 C 
ATOM      2  C   UNL     1      45.189  19.399  18.380  0.00  0.00    +0.007 C 
ATOM      3  C   UNL     1      43.703  19.710  18.362  0.00  0.00    +0.052 C 
ATOM      4  C   UNL     1      43.208  20.379  19.627  0.00  0.00    +0.099 C 
ATOM      5  C   UNL     1      44.054  21.603  19.969  0.00  0.00    +0.095 C 
ATOM      6  C   UNL     1      45.474  21.097  20.268  0.00  0.00    -0.084 C 
ATOM     10  C   UNL     1      45.438  20.118  21.408  0.00  0.00    +0.408 C 
ATOM     11  C   UNL     1      44.305  19.311  21.640  0.00  0.00    -0.120 C 
ATOM     12  O   UNL     1      46.390  20.025  22.158  0.00  0.00    -0.435 OA
ATOM     13  O   UNL     1      41.816  20.713  19.530  0.00  0.00    -0.352 OA
ATOM     14  C   UNL     1      41.137  19.549  20.036  0.00  0.00    +0.411 C 
ATOM     15  O   UNL     1      42.074  18.784  20.810  0.00  0.00    -0.299 OA
ATOM     16  C   UNL     1      43.253  19.426  20.807  0.00  0.00    +0.136 C 
ATOM     17  C   UNL     1      46.054  20.478  19.004  0.00  0.00    +0.079 C 
ENDROOT
BRANCH  17  18
ATOM     18  C   UNL     1      47.424  19.918  19.292  0.00  0.00    -0.042 A 
ATOM     19  C   UNL     1      47.562  18.594  19.665  0.00  0.00    +0.012 A 
ATOM     20  C   UNL     1      48.819  18.075  19.931  0.00  0.00    +0.069 A 
ATOM     21  C   UNL     1      49.942  18.889  19.824  0.00  0.00    -0.003 A 
ATOM     22  O   UNL     1      51.049  18.150  20.135  0.00  0.00    -0.300 OA
ATOM     23  C   UNL     1      50.553  16.989  20.828  0.00  0.00    +0.429 C 
ATOM     24  C   UNL     1      49.798  20.218  19.449  0.00  0.00    +0.151 A 
ATOM     27  O   UNL     1      49.220  16.825  20.310  0.00  0.00    -0.306 OA
ATOM     28  C   UNL     1      48.537  20.729  19.179  0.00  0.00    -0.024 A 
BRANCH  24  25
ATOM     25  O   UNL     1      50.893  21.018  19.342  0.00  0.00    -0.307 OA
ATOM     26  C   UNL     1      51.553  21.049  18.075  0.00  0.00    +0.244 C 
ENDBRANCH  24  25
ENDBRANCH  17  18
BRANCH   6   7
ATOM      7  C   UNL     1      46.342  22.297  20.679  0.00  0.00    +0.094 C 
BRANCH   7   8
ATOM      8  C   UNL     1      45.455  23.470  21.003  0.00  0.00    -0.066 C 
ATOM      9  C   UNL     1      45.946  24.684  20.999  0.00  0.00    +0.028 C 
ENDBRANCH   7   8
ENDBRANCH   6   7
TORSDOF 4
ENDMDL
MODEL 5
REMARK VINA RESULT:      -6.1      2.318      5.857
REMARK  Name = ZINC95486227
REMARK  6 active torsions:
REMARK  status: ('A' for Active; 'I' for Inactive)
REMARK    1  A    between atoms: C1_1  and  C2_2
REMARK    2  A    between atoms: C6_7  and  C20_28
REMARK    3  A    between atoms: C7_8  and  C8_10
REMARK    4  A    between atoms: C12_14  and  O1_16
REMARK    5  A    between atoms: O1_16  and  C14_17
REMARK    6  A    between atoms: C20_28  and  C21_29
REMARK                            x       y       z     vdW  Elec       q    Type
REMARK                         _______ _______ _______ _____ _____    ______ ____
ROOT
ATOM      1  C   UNL     1      43.904  17.537  21.164  0.00  0.00    +0.022 C 
ATOM      2  C   UNL     1      45.092  18.237  21.824  0.00  0.00    +0.007 C 
ATOM      3  C   UNL     1      46.169  17.241  22.217  0.00  0.00    +0.052 C 
ATOM      4  C   UNL     1      47.162  16.954  21.109  0.00  0.00    +0.099 C 
ATOM      5  C   UNL     1      47.744  18.247  20.544  0.00  0.00    +0.095 C 
ATOM      6  C   UNL     1      46.580  19.018  19.901  0.00  0.00    -0.084 C 
ATOM     10  C   UNL     1      45.948  18.182  18.823  0.00  0.00    +0.408 C 
ATOM     11  C   UNL     1      45.945  16.774  18.900  0.00  0.00    -0.120 C 
ATOM     12  O   UNL     1      45.444  18.720  17.856  0.00  0.00    -0.435 OA
ATOM     13  O   UNL     1      48.195  16.063  21.554  0.00  0.00    -0.352 OA
ATOM     14  C   UNL     1      47.684  14.751  21.256  0.00  0.00    +0.411 C 
ATOM     15  O   UNL     1      46.639  14.889  20.281  0.00  0.00    -0.299 OA
ATOM     16  C   UNL     1      46.512  16.188  19.973  0.00  0.00    +0.136 C 
ATOM     17  C   UNL     1      45.581  19.401  20.984  0.00  0.00    +0.079 C 
ENDROOT
BRANCH  17  18
ATOM     18  C   UNL     1      44.401  20.103  20.364  0.00  0.00    -0.042 A 
ATOM     19  C   UNL     1      43.269  19.383  20.029  0.00  0.00    +0.012 A 
ATOM     20  C   UNL     1      42.181  20.024  19.458  0.00  0.00    +0.069 A 
ATOM     21  C   UNL     1      42.229  21.394  19.223  0.00  0.00    -0.003 A 
ATOM     22  O   UNL     1      41.046  21.783  18.660  0.00  0.00    -0.300 OA
ATOM     23  C   UNL     1      40.434  20.572  18.179  0.00  0.00    +0.429 C 
ATOM     24  C   UNL     1      43.367  22.113  19.562  0.00  0.00    +0.151 A 
ATOM     27  O   UNL     1      40.968  19.552  19.043  0.00  0.00    -0.306 OA
ATOM     28  C   UNL     1      44.450  21.465  20.137  0.00  0.00    -0.024 A 
BRANCH  24  25
ATOM     25  O   UNL     1      43.419  23.453  19.334  0.00  0.00    -0.307 OA
ATOM     26  C   UNL     1      44.709  24.067  19.362  0.00  0.00    +0.244 C 
ENDBRANCH  24  25
ENDBRANCH  17  18
BRANCH   6   7
ATOM      7  C   UNL     1      47.139  20.300  19.263  0.00  0.00    +0.094 C 
BRANCH   7   8
ATOM      8  C   UNL     1      48.562  20.505  19.713  0.00  0.00    -0.066 C 
ATOM      9  C   UNL     1      49.483  20.840  18.844  0.00  0.00    +0.028 C 
ENDBRANCH   7   8
ENDBRANCH   6   7
TORSDOF 4
ENDMDL
MODEL 6
REMARK VINA RESULT:      -5.9      2.313      5.923
REMARK  Name = ZINC95486227
REMARK  6 active torsions:
REMARK  status: ('A' for Active; 'I' for Inactive)
REMARK    1  A    between atoms: C1_1  and  C2_2
REMARK    2  A    between atoms: C6_7  and  C20_28
REMARK    3  A    between atoms: C7_8  and  C8_10
REMARK    4  A    between atoms: C12_14  and  O1_16
REMARK    5  A    between atoms: O1_16  and  C14_17
REMARK    6  A    between atoms: C20_28  and  C21_29
REMARK                            x       y       z     vdW  Elec       q    Type
REMARK                         _______ _______ _______ _____ _____    ______ ____
ROOT
ATOM      1  C   UNL     1      47.563  21.281  20.221  0.00  0.00    +0.022 C 
ATOM      2  C   UNL     1      47.876  20.351  19.049  0.00  0.00    +0.007 C 
ATOM      3  C   UNL     1      49.192  19.622  19.260  0.00  0.00    +0.052 C 
ATOM      4  C   UNL     1      49.051  18.329  20.036  0.00  0.00    +0.099 C 
ATOM      5  C   UNL     1      47.981  17.432  19.419  0.00  0.00    +0.095 C 
ATOM      6  C   UNL     1      46.642  18.173  19.555  0.00  0.00    -0.084 C 
ATOM     10  C   UNL     1      46.357  18.451  21.004  0.00  0.00    +0.408 C 
ATOM     11  C   UNL     1      47.404  18.648  21.929  0.00  0.00    -0.120 C 
ATOM     12  O   UNL     1      45.208  18.492  21.400  0.00  0.00    -0.435 OA
ATOM     13  O   UNL     1      50.309  17.648  20.147  0.00  0.00    -0.352 OA
ATOM     14  C   UNL     1      50.883  18.161  21.363  0.00  0.00    +0.411 C 
ATOM     15  O   UNL     1      49.830  18.744  22.145  0.00  0.00    -0.299 OA
ATOM     16  C   UNL     1      48.673  18.594  21.481  0.00  0.00    +0.136 C 
ATOM     17  C   UNL     1      46.698  19.451  18.730  0.00  0.00    +0.079 C 
ENDROOT
BRANCH  17  18
ATOM     18  C   UNL     1      45.416  20.225  18.900  0.00  0.00    -0.042 A 
ATOM     19  C   UNL     1      44.203  19.614  18.638  0.00  0.00    +0.012 A 
ATOM     20  C   UNL     1      43.021  20.321  18.793  0.00  0.00    +0.069 A 
ATOM     21  C   UNL     1      43.057  21.647  19.212  0.00  0.00    -0.003 A 
ATOM     22  O   UNL     1      41.776  22.116  19.287  0.00  0.00    -0.300 OA
ATOM     23  C   UNL     1      40.983  21.192  18.517  0.00  0.00    +0.429 C 
ATOM     24  C   UNL     1      44.277  22.256  19.475  0.00  0.00    +0.151 A 
ATOM     27  O   UNL     1      41.719  19.957  18.603  0.00  0.00    -0.306 OA
ATOM     28  C   UNL     1      45.455  21.540  19.322  0.00  0.00    -0.024 A 
BRANCH  24  25
ATOM     25  O   UNL     1      44.317  23.552  19.885  0.00  0.00    -0.307 OA
ATOM     26  C   UNL     1      44.464  24.549  18.872  0.00  0.00    +0.244 C 
ENDBRANCH  24  25
ENDBRANCH  17  18
BRANCH   6   7
ATOM      7  C   UNL     1      45.527  17.271  19.000  0.00  0.00    +0.094 C 
BRANCH   7   8
ATOM      8  C   UNL     1      45.932  15.826  19.146  0.00  0.00    -0.066 C 
ATOM      9  C   UNL     1      45.257  15.034  19.941  0.00  0.00    +0.028 C 
ENDBRANCH   7   8
ENDBRANCH   6   7
TORSDOF 4
ENDMDL
MODEL 7
REMARK VINA RESULT:      -5.8      1.608      3.922
REMARK  Name = ZINC95486227
REMARK  6 active torsions:
REMARK  status: ('A' for Active; 'I' for Inactive)
REMARK    1  A    between atoms: C1_1  and  C2_2
REMARK    2  A    between atoms: C6_7  and  C20_28
REMARK    3  A    between atoms: C7_8  and  C8_10
REMARK    4  A    between atoms: C12_14  and  O1_16
REMARK    5  A    between atoms: O1_16  and  C14_17
REMARK    6  A    between atoms: C20_28  and  C21_29
REMARK                            x       y       z     vdW  Elec       q    Type
REMARK                         _______ _______ _______ _____ _____    ______ ____
ROOT
ATOM      1  C   UNL     1      47.282  19.804  19.437  0.00  0.00    +0.022 C 
ATOM      2  C   UNL     1      46.916  19.635  20.911  0.00  0.00    +0.007 C 
ATOM      3  C   UNL     1      46.679  20.979  21.578  0.00  0.00    +0.052 C 
ATOM      4  C   UNL     1      45.255  21.477  21.450  0.00  0.00    +0.099 C 
ATOM      5  C   UNL     1      44.258  20.417  21.909  0.00  0.00    +0.095 C 
ATOM      6  C   UNL     1      44.394  19.226  20.947  0.00  0.00    -0.084 C 
ATOM     10  C   UNL     1      44.112  19.672  19.540  0.00  0.00    +0.408 C 
ATOM     11  C   UNL     1      44.390  20.991  19.123  0.00  0.00    -0.120 C 
ATOM     12  O   UNL     1      43.620  18.896  18.744  0.00  0.00    -0.435 OA
ATOM     13  O   UNL     1      45.069  22.713  22.154  0.00  0.00    -0.352 OA
ATOM     14  C   UNL     1      45.373  23.726  21.177  0.00  0.00    +0.411 C 
ATOM     15  O   UNL     1      45.281  23.132  19.873  0.00  0.00    -0.299 OA
ATOM     16  C   UNL     1      44.929  21.846  20.015  0.00  0.00    +0.136 C 
ATOM     17  C   UNL     1      45.790  18.634  21.087  0.00  0.00    +0.079 C 
ENDROOT
BRANCH  17  18
ATOM     18  C   UNL     1      45.966  17.504  20.106  0.00  0.00    -0.042 A 
ATOM     19  C   UNL     1      45.381  16.276  20.358  0.00  0.00    +0.012 A 
ATOM     20  C   UNL     1      45.540  15.233  19.458  0.00  0.00    +0.069 A 
ATOM     21  C   UNL     1      46.288  15.424  18.301  0.00  0.00    -0.003 A 
ATOM     22  O   UNL     1      46.294  14.259  17.587  0.00  0.00    -0.300 OA
ATOM     23  C   UNL     1      45.885  13.238  18.517  0.00  0.00    +0.429 C 
ATOM     24  C   UNL     1      46.873  16.659  18.052  0.00  0.00    +0.151 A 
ATOM     27  O   UNL     1      45.076  13.949  19.472  0.00  0.00    -0.306 OA
ATOM     28  C   UNL     1      46.705  17.699  18.955  0.00  0.00    -0.024 A 
BRANCH  24  25
ATOM     25  O   UNL     1      47.605  16.851  16.923  0.00  0.00    -0.307 OA
ATOM     26  C   UNL     1      48.945  17.317  17.089  0.00  0.00    +0.244 C 
ENDBRANCH  24  25
ENDBRANCH  17  18
BRANCH   6   7
ATOM      7  C   UNL     1      43.359  18.160  21.340  0.00  0.00    +0.094 C 
BRANCH   7   8
ATOM      8  C   UNL     1      42.124  18.835  21.877  0.00  0.00    -0.066 C 
ATOM      9  C   UNL     1      41.015  18.824  21.180  0.00  0.00    +0.028 C 
ENDBRANCH   7   8
ENDBRANCH   6   7
TORSDOF 4
ENDMDL
MODEL 8
REMARK VINA RESULT:      -5.7      2.458      5.260
REMARK  Name = ZINC95486227
REMARK  6 active torsions:
REMARK  status: ('A' for Active; 'I' for Inactive)
REMARK    1  A    between atoms: C1_1  and  C2_2
REMARK    2  A    between atoms: C6_7  and  C20_28
REMARK    3  A    between atoms: C7_8  and  C8_10
REMARK    4  A    between atoms: C12_14  and  O1_16
REMARK    5  A    between atoms: O1_16  and  C14_17
REMARK    6  A    between atoms: C20_28  and  C21_29
REMARK                            x       y       z     vdW  Elec       q    Type
REMARK                         _______ _______ _______ _____ _____    ______ ____
ROOT
ATOM      1  C   UNL     1      46.833  19.988  20.903  0.00  0.00    +0.022 C 
ATOM      2  C   UNL     1      46.699  18.551  21.407  0.00  0.00    +0.007 C 
ATOM      3  C   UNL     1      45.348  18.319  22.061  0.00  0.00    +0.052 C 
ATOM      4  C   UNL     1      44.266  17.905  21.086  0.00  0.00    +0.099 C 
ATOM      5  C   UNL     1      44.714  16.716  20.240  0.00  0.00    +0.095 C 
ATOM      6  C   UNL     1      45.906  17.191  19.395  0.00  0.00    -0.084 C 
ATOM     10  C   UNL     1      45.493  18.352  18.535  0.00  0.00    +0.408 C 
ATOM     11  C   UNL     1      44.484  19.246  18.953  0.00  0.00    -0.120 C 
ATOM     12  O   UNL     1      46.018  18.523  17.452  0.00  0.00    -0.435 OA
ATOM     13  O   UNL     1      43.031  17.633  21.763  0.00  0.00    -0.352 OA
ATOM     14  C   UNL     1      42.349  18.900  21.779  0.00  0.00    +0.411 C 
ATOM     15  O   UNL     1      42.935  19.737  20.769  0.00  0.00    -0.299 OA
ATOM     16  C   UNL     1      43.903  19.044  20.151  0.00  0.00    +0.136 C 
ATOM     17  C   UNL     1      47.058  17.552  20.324  0.00  0.00    +0.079 C 
ENDROOT
BRANCH  17  18
ATOM     18  C   UNL     1      48.217  18.080  19.518  0.00  0.00    -0.042 A 
ATOM     19  C   UNL     1      48.587  19.407  19.633  0.00  0.00    +0.012 A 
ATOM     20  C   UNL     1      49.652  19.898  18.894  0.00  0.00    +0.069 A 
ATOM     21  C   UNL     1      50.347  19.053  18.035  0.00  0.00    -0.003 A 
ATOM     22  O   UNL     1      51.341  19.768  17.428  0.00  0.00    -0.300 OA
ATOM     23  C   UNL     1      50.988  21.151  17.616  0.00  0.00    +0.429 C 
ATOM     24  C   UNL     1      49.972  17.721  17.923  0.00  0.00    +0.151 A 
ATOM     27  O   UNL     1      50.208  21.144  18.826  0.00  0.00    -0.306 OA
ATOM     28  C   UNL     1      48.908  17.236  18.670  0.00  0.00    -0.024 A 
BRANCH  24  25
ATOM     25  O   UNL     1      50.649  16.891  17.085  0.00  0.00    -0.307 OA
ATOM     26  C   UNL     1      51.839  16.285  17.593  0.00  0.00    +0.244 C 
ENDBRANCH  24  25
ENDBRANCH  17  18
BRANCH   6   7
ATOM      7  C   UNL     1      46.347  16.036  18.481  0.00  0.00    +0.094 C 
BRANCH   7   8
ATOM      8  C   UNL     1      45.942  14.724  19.101  0.00  0.00    -0.066 C 
ATOM      9  C   UNL     1      45.838  13.651  18.356  0.00  0.00    +0.028 C 
ENDBRANCH   7   8
ENDBRANCH   6   7
TORSDOF 4
ENDMDL
MODEL 9
REMARK VINA RESULT:      -5.7      2.128      5.858
REMARK  Name = ZINC95486227
REMARK  6 active torsions:
REMARK  status: ('A' for Active; 'I' for Inactive)
REMARK    1  A    between atoms: C1_1  and  C2_2
REMARK    2  A    between atoms: C6_7  and  C20_28
REMARK    3  A    between atoms: C7_8  and  C8_10
REMARK    4  A    between atoms: C12_14  and  O1_16
REMARK    5  A    between atoms: O1_16  and  C14_17
REMARK    6  A    between atoms: C20_28  and  C21_29
REMARK                            x       y       z     vdW  Elec       q    Type
REMARK                         _______ _______ _______ _____ _____    ______ ____
ROOT
ATOM      1  C   UNL     1      44.559  16.800  21.363  0.00  0.00    +0.022 C 
ATOM      2  C   UNL     1      45.960  17.251  21.778  0.00  0.00    +0.007 C 
ATOM      3  C   UNL     1      46.880  16.063  21.995  0.00  0.00    +0.052 C 
ATOM      4  C   UNL     1      47.580  15.600  20.734  0.00  0.00    +0.099 C 
ATOM      5  C   UNL     1      48.285  16.762  20.039  0.00  0.00    +0.095 C 
ATOM      6  C   UNL     1      47.193  17.749  19.597  0.00  0.00    -0.084 C 
ATOM     10  C   UNL     1      46.226  17.061  18.674  0.00  0.00    +0.408 C 
ATOM     11  C   UNL     1      45.968  15.679  18.787  0.00  0.00    -0.120 C 
ATOM     12  O   UNL     1      45.666  17.694  17.800  0.00  0.00    -0.435 OA
ATOM     13  O   UNL     1      48.487  14.523  21.007  0.00  0.00    -0.352 OA
ATOM     14  C   UNL     1      47.689  13.337  20.841  0.00  0.00    +0.411 C 
ATOM     15  O   UNL     1      46.529  13.682  20.068  0.00  0.00    -0.299 OA
ATOM     16  C   UNL     1      46.599  14.985  19.754  0.00  0.00    +0.136 C 
ATOM     17  C   UNL     1      46.501  18.307  20.832  0.00  0.00    +0.079 C 
ENDROOT
BRANCH  17  18
ATOM     18  C   UNL     1      45.383  19.230  20.418  0.00  0.00    -0.042 A 
ATOM     19  C   UNL     1      45.660  20.547  20.103  0.00  0.00    +0.012 A 
ATOM     20  C   UNL     1      44.636  21.400  19.722  0.00  0.00    +0.069 A 
ATOM     21  C   UNL     1      43.329  20.928  19.657  0.00  0.00    -0.003 A 
ATOM     22  O   UNL     1      42.514  21.950  19.260  0.00  0.00    -0.300 OA
ATOM     23  C   UNL     1      43.274  23.154  19.479  0.00  0.00    +0.429 C 
ATOM     24  C   UNL     1      43.056  19.603  19.974  0.00  0.00    +0.151 A 
ATOM     27  O   UNL     1      44.642  22.719  19.367  0.00  0.00    -0.306 OA
ATOM     28  C   UNL     1      44.087  18.755  20.350  0.00  0.00    -0.024 A 
BRANCH  24  25
ATOM     25  O   UNL     1      41.780  19.137  19.911  0.00  0.00    -0.307 OA
ATOM     26  C   UNL     1      41.148  18.808  21.150  0.00  0.00    +0.244 C 
ENDBRANCH  24  25
ENDBRANCH  17  18
BRANCH   6   7
ATOM      7  C   UNL     1      47.860  18.905  18.834  0.00  0.00    +0.094 C 
BRANCH   7   8
ATOM      8  C   UNL     1      49.101  19.340  19.571  0.00  0.00    -0.066 C 
ATOM      9  C   UNL     1      49.491  20.590  19.516  0.00  0.00    +0.028 C 
ENDBRANCH   7   8
ENDBRANCH   6   7
TORSDOF 4
ENDMDL
