MODEL 1
REMARK VINA RESULT:      -4.4      0.000      0.000
REMARK  Name = ZINC00013245
REMARK  3 active torsions:
REMARK  status: ('A' for Active; 'I' for Inactive)
REMARK    1  A    between atoms: C3_3  and  O3_10
REMARK    2  A    between atoms: C4_4  and  O2_9
REMARK    3  A    between atoms: C6_6  and  C7_7
REMARK                            x       y       z     vdW  Elec       q    Type
REMARK                         _______ _______ _______ _____ _____    ______ ____
ROOT
ATOM      1  C   UNL     1      41.693  19.608  19.891  0.00  0.00    +0.091 A 
ATOM      2  C   UNL     1      40.569  20.185  19.341  0.00  0.00    -0.004 A 
ATOM      3  C   UNL     1      40.635  21.462  18.801  0.00  0.00    +0.117 A 
ATOM      6  C   UNL     1      41.838  22.168  18.809  0.00  0.00    +0.066 A 
ATOM      9  C   UNL     1      42.969  21.598  19.357  0.00  0.00    +0.066 A 
ATOM     10  C   UNL     1      42.905  20.309  19.903  0.00  0.00    -0.188 A 
ENDROOT
BRANCH   3   4
ATOM      4  O   UNL     1      39.524  22.026  18.261  0.00  0.00    -0.486 OA
ATOM      5  H   UNL     1      39.541  22.083  17.296  0.00  0.00    +0.395 HD
ENDBRANCH   3   4
BRANCH   6   7
ATOM      7  O   UNL     1      41.896  23.419  18.278  0.00  0.00    -0.485 OA
ATOM      8  H   UNL     1      41.186  23.614  17.651  0.00  0.00    +0.390 HD
ENDBRANCH   6   7
BRANCH  10  11
ATOM     11  C   UNL     1      44.105  19.697  20.487  0.00  0.00    +0.494 C 
ATOM     12  O   UNL     1      44.203  19.584  21.691  0.00  0.00    -0.455 OA
ENDBRANCH  10  11
TORSDOF 3
ENDMDL
MODEL 2
REMARK VINA RESULT:      -4.3     20.276     21.458
REMARK  Name = ZINC00013245
REMARK  3 active torsions:
REMARK  status: ('A' for Active; 'I' for Inactive)
REMARK    1  A    between atoms: C3_3  and  O3_10
REMARK    2  A    between atoms: C4_4  and  O2_9
REMARK    3  A    between atoms: C6_6  and  C7_7
REMARK                            x       y       z     vdW  Elec       q    Type
REMARK                         _______ _______ _______ _____ _____    ______ ____
ROOT
ATOM      1  C   UNL     1      53.372  32.514   5.443  0.00  0.00    +0.091 A 
ATOM      2  C   UNL     1      52.005  32.530   5.612  0.00  0.00    -0.004 A 
ATOM      3  C   UNL     1      51.412  33.496   6.413  0.00  0.00    +0.117 A 
ATOM      6  C   UNL     1      52.196  34.457   7.052  0.00  0.00    +0.066 A 
ATOM      9  C   UNL     1      53.567  34.449   6.890  0.00  0.00    +0.066 A 
ATOM     10  C   UNL     1      54.167  33.475   6.081  0.00  0.00    -0.188 A 
ENDROOT
BRANCH   3   4
ATOM      4  O   UNL     1      50.064  33.506   6.574  0.00  0.00    -0.486 OA
ATOM      5  H   UNL     1      49.778  33.702   7.477  0.00  0.00    +0.395 HD
ENDBRANCH   3   4
BRANCH   6   7
ATOM      7  O   UNL     1      51.610  35.401   7.836  0.00  0.00    -0.485 OA
ATOM      8  H   UNL     1      51.438  35.110   8.742  0.00  0.00    +0.390 HD
ENDBRANCH   6   7
BRANCH  10  11
ATOM     11  C   UNL     1      55.624  33.461   5.904  0.00  0.00    +0.494 C 
ATOM     12  O   UNL     1      56.208  34.484   5.609  0.00  0.00    -0.455 OA
ENDBRANCH  10  11
TORSDOF 3
ENDMDL
MODEL 3
REMARK VINA RESULT:      -4.3      0.874      2.229
REMARK  Name = ZINC00013245
REMARK  3 active torsions:
REMARK  status: ('A' for Active; 'I' for Inactive)
REMARK    1  A    between atoms: C3_3  and  O3_10
REMARK    2  A    between atoms: C4_4  and  O2_9
REMARK    3  A    between atoms: C6_6  and  C7_7
REMARK                            x       y       z     vdW  Elec       q    Type
REMARK                         _______ _______ _______ _____ _____    ______ ____
ROOT
ATOM      1  C   UNL     1      43.012  20.594  19.913  0.00  0.00    +0.091 A 
ATOM      2  C   UNL     1      42.953  21.794  19.238  0.00  0.00    -0.004 A 
ATOM      3  C   UNL     1      41.749  22.238  18.708  0.00  0.00    +0.117 A 
ATOM      6  C   UNL     1      40.591  21.473  18.857  0.00  0.00    +0.066 A 
ATOM      9  C   UNL     1      40.640  20.270  19.531  0.00  0.00    +0.066 A 
ATOM     10  C   UNL     1      41.855  19.821  20.066  0.00  0.00    -0.188 A 
ENDROOT
BRANCH   3   4
ATOM      4  O   UNL     1      41.698  23.421  18.045  0.00  0.00    -0.486 OA
ATOM      5  H   UNL     1      41.307  23.360  17.162  0.00  0.00    +0.395 HD
ENDBRANCH   3   4
BRANCH   6   7
ATOM      7  O   UNL     1      39.415  21.913  18.336  0.00  0.00    -0.485 OA
ATOM      8  H   UNL     1      38.962  21.263  17.781  0.00  0.00    +0.390 HD
ENDBRANCH   6   7
BRANCH  10  11
ATOM     11  C   UNL     1      41.913  18.542  20.785  0.00  0.00    +0.494 C 
ATOM     12  O   UNL     1      42.295  18.511  21.937  0.00  0.00    -0.455 OA
ENDBRANCH  10  11
TORSDOF 3
ENDMDL
MODEL 4
REMARK VINA RESULT:      -4.2     21.224     21.840
REMARK  Name = ZINC00013245
REMARK  3 active torsions:
REMARK  status: ('A' for Active; 'I' for Inactive)
REMARK    1  A    between atoms: C3_3  and  O3_10
REMARK    2  A    between atoms: C4_4  and  O2_9
REMARK    3  A    between atoms: C6_6  and  C7_7
REMARK                            x       y       z     vdW  Elec       q    Type
REMARK                         _______ _______ _______ _____ _____    ______ ____
ROOT
ATOM      1  C   UNL     1      53.061  32.546   4.478  0.00  0.00    +0.091 A 
ATOM      2  C   UNL     1      54.189  32.721   5.249  0.00  0.00    -0.004 A 
ATOM      3  C   UNL     1      54.140  33.515   6.387  0.00  0.00    +0.117 A 
ATOM      6  C   UNL     1      52.948  34.140   6.757  0.00  0.00    +0.066 A 
ATOM      9  C   UNL     1      51.813  33.970   5.990  0.00  0.00    +0.066 A 
ATOM     10  C   UNL     1      51.861  33.169   4.842  0.00  0.00    -0.188 A 
ENDROOT
BRANCH   3   4
ATOM      4  O   UNL     1      55.255  33.684   7.142  0.00  0.00    -0.486 OA
ATOM      5  H   UNL     1      55.885  32.953   7.081  0.00  0.00    +0.395 HD
ENDBRANCH   3   4
BRANCH   6   7
ATOM      7  O   UNL     1      52.906  34.917   7.872  0.00  0.00    -0.485 OA
ATOM      8  H   UNL     1      52.512  34.481   8.640  0.00  0.00    +0.390 HD
ENDBRANCH   6   7
BRANCH  10  11
ATOM     11  C   UNL     1      50.657  32.984   4.023  0.00  0.00    +0.494 C 
ATOM     12  O   UNL     1      49.932  33.929   3.788  0.00  0.00    -0.455 OA
ENDBRANCH  10  11
TORSDOF 3
ENDMDL
MODEL 5
REMARK VINA RESULT:      -4.1     20.423     21.639
REMARK  Name = ZINC00013245
REMARK  3 active torsions:
REMARK  status: ('A' for Active; 'I' for Inactive)
REMARK    1  A    between atoms: C3_3  and  O3_10
REMARK    2  A    between atoms: C4_4  and  O2_9
REMARK    3  A    between atoms: C6_6  and  C7_7
REMARK                            x       y       z     vdW  Elec       q    Type
REMARK                         _______ _______ _______ _____ _____    ______ ____
ROOT
ATOM      1  C   UNL     1      54.361  33.703   5.728  0.00  0.00    +0.091 A 
ATOM      2  C   UNL     1      53.832  34.585   6.644  0.00  0.00    -0.004 A 
ATOM      3  C   UNL     1      52.484  34.529   6.970  0.00  0.00    +0.117 A 
ATOM      6  C   UNL     1      51.656  33.578   6.373  0.00  0.00    +0.066 A 
ATOM      9  C   UNL     1      52.176  32.689   5.454  0.00  0.00    +0.066 A 
ATOM     10  C   UNL     1      53.537  32.745   5.124  0.00  0.00    -0.188 A 
ENDROOT
BRANCH   3   4
ATOM      4  O   UNL     1      51.970  35.401   7.874  0.00  0.00    -0.486 OA
ATOM      5  H   UNL     1      52.504  35.499   8.674  0.00  0.00    +0.395 HD
ENDBRANCH   3   4
BRANCH   6   7
ATOM      7  O   UNL     1      50.336  33.526   6.696  0.00  0.00    -0.485 OA
ATOM      8  H   UNL     1      49.970  32.632   6.716  0.00  0.00    +0.390 HD
ENDBRANCH   6   7
BRANCH  10  11
ATOM     11  C   UNL     1      54.097  31.802   4.147  0.00  0.00    +0.494 C 
ATOM     12  O   UNL     1      55.239  31.938   3.759  0.00  0.00    -0.455 OA
ENDBRANCH  10  11
TORSDOF 3
ENDMDL
MODEL 6
REMARK VINA RESULT:      -4.0     10.262     10.469
REMARK  Name = ZINC00013245
REMARK  3 active torsions:
REMARK  status: ('A' for Active; 'I' for Inactive)
REMARK    1  A    between atoms: C3_3  and  O3_10
REMARK    2  A    between atoms: C4_4  and  O2_9
REMARK    3  A    between atoms: C6_6  and  C7_7
REMARK                            x       y       z     vdW  Elec       q    Type
REMARK                         _______ _______ _______ _____ _____    ______ ____
ROOT
ATOM      1  C   UNL     1      51.800  18.363  15.979  0.00  0.00    +0.091 A 
ATOM      2  C   UNL     1      51.747  19.645  15.478  0.00  0.00    -0.004 A 
ATOM      3  C   UNL     1      51.821  20.734  16.336  0.00  0.00    +0.117 A 
ATOM      6  C   UNL     1      51.951  20.537  17.711  0.00  0.00    +0.066 A 
ATOM      9  C   UNL     1      52.004  19.256  18.223  0.00  0.00    +0.066 A 
ATOM     10  C   UNL     1      51.930  18.157  17.358  0.00  0.00    -0.188 A 
ENDROOT
BRANCH   3   4
ATOM      4  O   UNL     1      51.769  21.994  15.835  0.00  0.00    -0.486 OA
ATOM      5  H   UNL     1      51.273  22.068  15.008  0.00  0.00    +0.395 HD
ENDBRANCH   3   4
BRANCH   6   7
ATOM      7  O   UNL     1      52.023  21.607  18.547  0.00  0.00    -0.485 OA
ATOM      8  H   UNL     1      52.922  21.934  18.691  0.00  0.00    +0.390 HD
ENDBRANCH   6   7
BRANCH  10  11
ATOM     11  C   UNL     1      51.987  16.792  17.896  0.00  0.00    +0.494 C 
ATOM     12  O   UNL     1      51.178  15.963  17.535  0.00  0.00    -0.455 OA
ENDBRANCH  10  11
TORSDOF 3
ENDMDL
MODEL 7
REMARK VINA RESULT:      -4.0      2.418      3.486
REMARK  Name = ZINC00013245
REMARK  3 active torsions:
REMARK  status: ('A' for Active; 'I' for Inactive)
REMARK    1  A    between atoms: C3_3  and  O3_10
REMARK    2  A    between atoms: C4_4  and  O2_9
REMARK    3  A    between atoms: C6_6  and  C7_7
REMARK                            x       y       z     vdW  Elec       q    Type
REMARK                         _______ _______ _______ _____ _____    ______ ____
ROOT
ATOM      1  C   UNL     1      45.802  21.053  18.893  0.00  0.00    +0.091 A 
ATOM      2  C   UNL     1      45.179  22.162  19.421  0.00  0.00    -0.004 A 
ATOM      3  C   UNL     1      43.816  22.139  19.683  0.00  0.00    +0.117 A 
ATOM      6  C   UNL     1      43.068  20.992  19.413  0.00  0.00    +0.066 A 
ATOM      9  C   UNL     1      43.683  19.876  18.884  0.00  0.00    +0.066 A 
ATOM     10  C   UNL     1      45.059  19.898  18.620  0.00  0.00    -0.188 A 
ENDROOT
BRANCH   3   4
ATOM      4  O   UNL     1      43.209  23.236  20.203  0.00  0.00    -0.486 OA
ATOM      5  H   UNL     1      43.589  23.536  21.040  0.00  0.00    +0.395 HD
ENDBRANCH   3   4
BRANCH   6   7
ATOM      7  O   UNL     1      41.733  20.975  19.672  0.00  0.00    -0.485 OA
ATOM      8  H   UNL     1      41.192  21.366  18.972  0.00  0.00    +0.390 HD
ENDBRANCH   6   7
BRANCH  10  11
ATOM     11  C   UNL     1      45.719  18.713  18.057  0.00  0.00    +0.494 C 
ATOM     12  O   UNL     1      45.561  17.628  18.577  0.00  0.00    -0.455 OA
ENDBRANCH  10  11
TORSDOF 3
ENDMDL
MODEL 8
REMARK VINA RESULT:      -4.0      7.766      9.490
REMARK  Name = ZINC00013245
REMARK  3 active torsions:
REMARK  status: ('A' for Active; 'I' for Inactive)
REMARK    1  A    between atoms: C3_3  and  O3_10
REMARK    2  A    between atoms: C4_4  and  O2_9
REMARK    3  A    between atoms: C6_6  and  C7_7
REMARK                            x       y       z     vdW  Elec       q    Type
REMARK                         _______ _______ _______ _____ _____    ______ ____
ROOT
ATOM      1  C   UNL     1      50.195  18.890  18.400  0.00  0.00    +0.091 A 
ATOM      2  C   UNL     1      50.913  18.356  17.353  0.00  0.00    -0.004 A 
ATOM      3  C   UNL     1      51.645  19.185  16.514  0.00  0.00    +0.117 A 
ATOM      6  C   UNL     1      51.659  20.564  16.726  0.00  0.00    +0.066 A 
ATOM      9  C   UNL     1      50.943  21.109  17.773  0.00  0.00    +0.066 A 
ATOM     10  C   UNL     1      50.204  20.273  18.621  0.00  0.00    -0.188 A 
ENDROOT
BRANCH   3   4
ATOM      4  O   UNL     1      52.350  18.652  15.484  0.00  0.00    -0.486 OA
ATOM      5  H   UNL     1      52.188  17.709  15.343  0.00  0.00    +0.395 HD
ENDBRANCH   3   4
BRANCH   6   7
ATOM      7  O   UNL     1      52.378  21.372  15.902  0.00  0.00    -0.485 OA
ATOM      8  H   UNL     1      52.368  21.097  14.975  0.00  0.00    +0.390 HD
ENDBRANCH   6   7
BRANCH  10  11
ATOM     11  C   UNL     1      49.440  20.846  19.736  0.00  0.00    +0.494 C 
ATOM     12  O   UNL     1      48.231  20.741  19.761  0.00  0.00    -0.455 OA
ENDBRANCH  10  11
TORSDOF 3
ENDMDL
MODEL 9
REMARK VINA RESULT:      -4.0      7.851      9.625
REMARK  Name = ZINC00013245
REMARK  3 active torsions:
REMARK  status: ('A' for Active; 'I' for Inactive)
REMARK    1  A    between atoms: C3_3  and  O3_10
REMARK    2  A    between atoms: C4_4  and  O2_9
REMARK    3  A    between atoms: C6_6  and  C7_7
REMARK                            x       y       z     vdW  Elec       q    Type
REMARK                         _______ _______ _______ _____ _____    ______ ____
ROOT
ATOM      1  C   UNL     1      50.196  20.482  18.556  0.00  0.00    +0.091 A 
ATOM      2  C   UNL     1      50.970  21.242  17.707  0.00  0.00    -0.004 A 
ATOM      3  C   UNL     1      51.692  20.634  16.689  0.00  0.00    +0.117 A 
ATOM      6  C   UNL     1      51.637  19.250  16.518  0.00  0.00    +0.066 A 
ATOM      9  C   UNL     1      50.864  18.480  17.364  0.00  0.00    +0.066 A 
ATOM     10  C   UNL     1      50.135  19.093  18.392  0.00  0.00    -0.188 A 
ENDROOT
BRANCH   3   4
ATOM      4  O   UNL     1      52.453  21.388  15.856  0.00  0.00    -0.486 OA
ATOM      5  H   UNL     1      53.185  21.842  16.295  0.00  0.00    +0.395 HD
ENDBRANCH   3   4
BRANCH   6   7
ATOM      7  O   UNL     1      52.346  18.660  15.519  0.00  0.00    -0.485 OA
ATOM      8  H   UNL     1      53.304  18.692  15.644  0.00  0.00    +0.390 HD
ENDBRANCH   6   7
BRANCH  10  11
ATOM     11  C   UNL     1      49.311  18.279  19.294  0.00  0.00    +0.494 C 
ATOM     12  O   UNL     1      48.235  17.861  18.920  0.00  0.00    -0.455 OA
ENDBRANCH  10  11
TORSDOF 3
ENDMDL
