MODEL 1
REMARK VINA RESULT:      -5.6      0.000      0.000
REMARK  Name = ZINC95485957
REMARK  6 active torsions:
REMARK  status: ('A' for Active; 'I' for Inactive)
REMARK    1  A    between atoms: C1_1  and  C2_2
REMARK    2  A    between atoms: C9_9  and  O4_17
REMARK    3  A    between atoms: C10_10  and  O3_15
REMARK    4  A    between atoms: O3_15  and  C13_16
REMARK    5  A    between atoms: C16_22  and  O7_23
REMARK    6  A    between atoms: O7_23  and  C17_24
REMARK                            x       y       z     vdW  Elec       q    Type
REMARK                         _______ _______ _______ _____ _____    ______ ____
ROOT
ATOM      1  C   UNL     1      49.289  16.890  17.981  0.00  0.00    +0.130 C 
ATOM      2  C   UNL     1      47.943  17.266  18.546  0.00  0.00    -0.071 A 
ATOM      3  C   UNL     1      47.421  18.516  18.267  0.00  0.00    +0.124 A 
ATOM      4  C   UNL     1      46.184  18.867  18.789  0.00  0.00    -0.132 A 
ATOM      5  C   UNL     1      45.490  17.927  19.581  0.00  0.00    -0.076 A 
ATOM      6  C   UNL     1      44.179  18.319  20.111  0.00  0.00    -0.077 A 
ATOM      7  C   UNL     1      43.576  17.464  21.059  0.00  0.00    -0.122 A 
ATOM      8  C   UNL     1      44.336  16.266  21.448  0.00  0.00    +0.537 A 
ATOM      9  O   UNL     1      45.288  15.793  20.607  0.00  0.00    -0.261 OA
ATOM     10  O   UNL     1      44.113  15.708  22.505  0.00  0.00    -0.414 OA
ATOM     11  C   UNL     1      42.335  17.810  21.576  0.00  0.00    +0.106 A 
ATOM     12  C   UNL     1      41.733  18.990  21.162  0.00  0.00    +0.124 A 
ATOM     15  C   UNL     1      42.342  19.836  20.233  0.00  0.00    +0.109 A 
ATOM     18  C   UNL     1      43.577  19.502  19.688  0.00  0.00    +0.127 A 
ATOM     19  O   UNL     1      44.189  20.265  18.748  0.00  0.00    -0.262 OA
ATOM     20  C   UNL     1      46.010  16.666  19.861  0.00  0.00    +0.116 A 
ATOM     21  C   UNL     1      45.532  20.170  18.587  0.00  0.00    +0.536 A 
ATOM     22  O   UNL     1      46.188  21.147  18.280  0.00  0.00    -0.415 OA
ATOM     23  C   UNL     1      47.257  16.343  19.330  0.00  0.00    +0.135 A 
ENDROOT
BRANCH  12  13
ATOM     13  O   UNL     1      40.522  19.332  21.675  0.00  0.00    -0.470 OA
ATOM     14  H   UNL     1      40.414  20.280  21.834  0.00  0.00    +0.399 HD
ENDBRANCH  12  13
BRANCH  15  16
ATOM     16  O   UNL     1      41.725  20.987  19.859  0.00  0.00    -0.311 OA
ATOM     17  C   UNL     1      40.906  20.935  18.689  0.00  0.00    +0.243 C 
ENDBRANCH  15  16
BRANCH  23  24
ATOM     24  O   UNL     1      47.808  15.128  19.583  0.00  0.00    -0.318 OA
ATOM     25  C   UNL     1      47.396  14.043  18.747  0.00  0.00    +0.244 C 
ENDBRANCH  23  24
TORSDOF 3
ENDMDL
MODEL 2
REMARK VINA RESULT:      -5.4      3.056      6.666
REMARK  Name = ZINC95485957
REMARK  6 active torsions:
REMARK  status: ('A' for Active; 'I' for Inactive)
REMARK    1  A    between atoms: C1_1  and  C2_2
REMARK    2  A    between atoms: C9_9  and  O4_17
REMARK    3  A    between atoms: C10_10  and  O3_15
REMARK    4  A    between atoms: O3_15  and  C13_16
REMARK    5  A    between atoms: C16_22  and  O7_23
REMARK    6  A    between atoms: O7_23  and  C17_24
REMARK                            x       y       z     vdW  Elec       q    Type
REMARK                         _______ _______ _______ _____ _____    ______ ____
ROOT
ATOM      1  C   UNL     1      45.510  13.936  18.835  0.00  0.00    +0.130 C 
ATOM      2  C   UNL     1      46.449  15.113  18.755  0.00  0.00    -0.071 A 
ATOM      3  C   UNL     1      47.682  14.950  18.153  0.00  0.00    +0.124 A 
ATOM      4  C   UNL     1      48.551  16.030  18.080  0.00  0.00    -0.132 A 
ATOM      5  C   UNL     1      48.139  17.269  18.615  0.00  0.00    -0.076 A 
ATOM      6  C   UNL     1      49.071  18.398  18.515  0.00  0.00    -0.077 A 
ATOM      7  C   UNL     1      48.746  19.578  19.219  0.00  0.00    -0.122 A 
ATOM      8  C   UNL     1      47.508  19.554  20.013  0.00  0.00    +0.537 A 
ATOM      9  O   UNL     1      46.541  18.660  19.693  0.00  0.00    -0.261 OA
ATOM     10  O   UNL     1      47.353  20.327  20.940  0.00  0.00    -0.414 OA
ATOM     11  C   UNL     1      49.610  20.661  19.140  0.00  0.00    +0.106 A 
ATOM     12  C   UNL     1      50.773  20.549  18.391  0.00  0.00    +0.124 A 
ATOM     15  C   UNL     1      51.093  19.375  17.707  0.00  0.00    +0.109 A 
ATOM     18  C   UNL     1      50.234  18.282  17.757  0.00  0.00    +0.127 A 
ATOM     19  O   UNL     1      50.475  17.135  17.074  0.00  0.00    -0.262 OA
ATOM     20  C   UNL     1      46.896  17.439  19.219  0.00  0.00    +0.116 A 
ATOM     21  C   UNL     1      49.897  15.980  17.488  0.00  0.00    +0.536 A 
ATOM     22  O   UNL     1      50.482  14.920  17.372  0.00  0.00    -0.415 OA
ATOM     23  C   UNL     1      46.047  16.336  19.284  0.00  0.00    +0.135 A 
ENDROOT
BRANCH  12  13
ATOM     13  O   UNL     1      51.621  21.608  18.322  0.00  0.00    -0.470 OA
ATOM     14  H   UNL     1      52.446  21.422  17.853  0.00  0.00    +0.399 HD
ENDBRANCH  12  13
BRANCH  15  16
ATOM     16  O   UNL     1      52.245  19.301  16.991  0.00  0.00    -0.311 OA
ATOM     17  C   UNL     1      52.184  19.701  15.620  0.00  0.00    +0.243 C 
ENDBRANCH  15  16
BRANCH  23  24
ATOM     24  O   UNL     1      44.828  16.452  19.871  0.00  0.00    -0.318 OA
ATOM     25  C   UNL     1      44.777  16.317  21.293  0.00  0.00    +0.244 C 
ENDBRANCH  23  24
TORSDOF 3
ENDMDL
MODEL 3
REMARK VINA RESULT:      -5.4      2.897      5.198
REMARK  Name = ZINC95485957
REMARK  6 active torsions:
REMARK  status: ('A' for Active; 'I' for Inactive)
REMARK    1  A    between atoms: C1_1  and  C2_2
REMARK    2  A    between atoms: C9_9  and  O4_17
REMARK    3  A    between atoms: C10_10  and  O3_15
REMARK    4  A    between atoms: O3_15  and  C13_16
REMARK    5  A    between atoms: C16_22  and  O7_23
REMARK    6  A    between atoms: O7_23  and  C17_24
REMARK                            x       y       z     vdW  Elec       q    Type
REMARK                         _______ _______ _______ _____ _____    ______ ____
ROOT
ATOM      1  C   UNL     1      51.602  21.433  18.502  0.00  0.00    +0.130 C 
ATOM      2  C   UNL     1      50.587  20.322  18.586  0.00  0.00    -0.071 A 
ATOM      3  C   UNL     1      49.461  20.498  19.370  0.00  0.00    +0.124 A 
ATOM      4  C   UNL     1      48.525  19.477  19.453  0.00  0.00    -0.132 A 
ATOM      5  C   UNL     1      48.749  18.290  18.720  0.00  0.00    -0.076 A 
ATOM      6  C   UNL     1      47.738  17.230  18.816  0.00  0.00    -0.077 A 
ATOM      7  C   UNL     1      48.051  15.977  18.249  0.00  0.00    -0.122 A 
ATOM      8  C   UNL     1      49.380  15.843  17.632  0.00  0.00    +0.537 A 
ATOM      9  O   UNL     1      50.028  16.961  17.224  0.00  0.00    -0.261 OA
ATOM     10  O   UNL     1      49.888  14.747  17.490  0.00  0.00    -0.414 OA
ATOM     11  C   UNL     1      47.112  14.957  18.324  0.00  0.00    +0.106 A 
ATOM     12  C   UNL     1      45.906  15.191  18.968  0.00  0.00    +0.124 A 
ATOM     15  C   UNL     1      45.609  16.431  19.538  0.00  0.00    +0.109 A 
ATOM     18  C   UNL     1      46.527  17.473  19.460  0.00  0.00    +0.127 A 
ATOM     19  O   UNL     1      46.268  18.710  19.956  0.00  0.00    -0.262 OA
ATOM     20  C   UNL     1      49.879  18.111  17.927  0.00  0.00    +0.116 A 
ATOM     21  C   UNL     1      47.302  19.530  20.268  0.00  0.00    +0.536 A 
ATOM     22  O   UNL     1      47.219  20.297  21.209  0.00  0.00    -0.415 OA
ATOM     23  C   UNL     1      50.805  19.150  17.868  0.00  0.00    +0.135 A 
ENDROOT
BRANCH  12  13
ATOM     13  O   UNL     1      44.991  14.189  19.048  0.00  0.00    -0.470 OA
ATOM     14  H   UNL     1      45.315  13.335  18.732  0.00  0.00    +0.399 HD
ENDBRANCH  12  13
BRANCH  15  16
ATOM     16  O   UNL     1      44.420  16.619  20.169  0.00  0.00    -0.311 OA
ATOM     17  C   UNL     1      44.383  16.361  21.574  0.00  0.00    +0.243 C 
ENDBRANCH  15  16
BRANCH  23  24
ATOM     24  O   UNL     1      51.925  19.018  17.113  0.00  0.00    -0.318 OA
ATOM     25  C   UNL     1      51.817  19.353  15.728  0.00  0.00    +0.244 C 
ENDBRANCH  23  24
TORSDOF 3
ENDMDL
MODEL 4
REMARK VINA RESULT:      -5.4      3.076      7.235
REMARK  Name = ZINC95485957
REMARK  6 active torsions:
REMARK  status: ('A' for Active; 'I' for Inactive)
REMARK    1  A    between atoms: C1_1  and  C2_2
REMARK    2  A    between atoms: C9_9  and  O4_17
REMARK    3  A    between atoms: C10_10  and  O3_15
REMARK    4  A    between atoms: O3_15  and  C13_16
REMARK    5  A    between atoms: C16_22  and  O7_23
REMARK    6  A    between atoms: O7_23  and  C17_24
REMARK                            x       y       z     vdW  Elec       q    Type
REMARK                         _______ _______ _______ _____ _____    ______ ____
ROOT
ATOM      1  C   UNL     1      43.495  20.401  19.035  0.00  0.00    +0.130 C 
ATOM      2  C   UNL     1      44.948  20.013  18.933  0.00  0.00    -0.071 A 
ATOM      3  C   UNL     1      45.300  18.919  18.163  0.00  0.00    +0.124 A 
ATOM      4  C   UNL     1      46.636  18.555  18.070  0.00  0.00    -0.132 A 
ATOM      5  C   UNL     1      47.599  19.327  18.757  0.00  0.00    -0.076 A 
ATOM      6  C   UNL     1      49.006  18.928  18.632  0.00  0.00    -0.077 A 
ATOM      7  C   UNL     1      49.943  19.570  19.469  0.00  0.00    -0.122 A 
ATOM      8  C   UNL     1      49.413  20.568  20.412  0.00  0.00    +0.537 A 
ATOM      9  O   UNL     1      48.219  21.152  20.146  0.00  0.00    -0.261 OA
ATOM     10  O   UNL     1      50.037  20.865  21.413  0.00  0.00    -0.414 OA
ATOM     11  C   UNL     1      51.281  19.214  19.370  0.00  0.00    +0.106 A 
ATOM     12  C   UNL     1      51.655  18.227  18.469  0.00  0.00    +0.124 A 
ATOM     15  C   UNL     1      50.720  17.588  17.653  0.00  0.00    +0.109 A 
ATOM     18  C   UNL     1      49.376  17.940  17.722  0.00  0.00    +0.127 A 
ATOM     19  O   UNL     1      48.435  17.383  16.919  0.00  0.00    -0.262 OA
ATOM     20  C   UNL     1      47.249  20.431  19.529  0.00  0.00    +0.116 A 
ATOM     21  C   UNL     1      47.136  17.402  17.306  0.00  0.00    +0.536 A 
ATOM     22  O   UNL     1      46.395  16.478  17.026  0.00  0.00    -0.415 OA
ATOM     23  C   UNL     1      45.900  20.768  19.611  0.00  0.00    +0.135 A 
ENDROOT
BRANCH  12  13
ATOM     13  O   UNL     1      52.964  17.873  18.380  0.00  0.00    -0.470 OA
ATOM     14  H   UNL     1      53.177  17.346  17.597  0.00  0.00    +0.399 HD
ENDBRANCH  12  13
BRANCH  15  16
ATOM     16  O   UNL     1      51.124  16.620  16.790  0.00  0.00    -0.311 OA
ATOM     17  C   UNL     1      51.070  15.270  17.256  0.00  0.00    +0.243 C 
ENDBRANCH  15  16
BRANCH  23  24
ATOM     24  O   UNL     1      45.511  21.833  20.358  0.00  0.00    -0.318 OA
ATOM     25  C   UNL     1      45.326  21.610  21.758  0.00  0.00    +0.244 C 
ENDBRANCH  23  24
TORSDOF 3
ENDMDL
MODEL 5
REMARK VINA RESULT:      -5.3      2.878      3.917
REMARK  Name = ZINC95485957
REMARK  6 active torsions:
REMARK  status: ('A' for Active; 'I' for Inactive)
REMARK    1  A    between atoms: C1_1  and  C2_2
REMARK    2  A    between atoms: C9_9  and  O4_17
REMARK    3  A    between atoms: C10_10  and  O3_15
REMARK    4  A    between atoms: O3_15  and  C13_16
REMARK    5  A    between atoms: C16_22  and  O7_23
REMARK    6  A    between atoms: O7_23  and  C17_24
REMARK                            x       y       z     vdW  Elec       q    Type
REMARK                         _______ _______ _______ _____ _____    ______ ____
ROOT
ATOM      1  C   UNL     1      52.171  19.104  19.862  0.00  0.00    +0.130 C 
ATOM      2  C   UNL     1      50.693  19.340  19.690  0.00  0.00    -0.071 A 
ATOM      3  C   UNL     1      50.074  20.314  20.451  0.00  0.00    +0.124 A 
ATOM      4  C   UNL     1      48.711  20.533  20.298  0.00  0.00    -0.132 A 
ATOM      5  C   UNL     1      48.002  19.757  19.355  0.00  0.00    -0.076 A 
ATOM      6  C   UNL     1      46.565  20.016  19.205  0.00  0.00    -0.077 A 
ATOM      7  C   UNL     1      45.819  19.116  18.414  0.00  0.00    -0.122 A 
ATOM      8  C   UNL     1      46.553  17.982  17.832  0.00  0.00    +0.537 A 
ATOM      9  O   UNL     1      47.896  18.081  17.675  0.00  0.00    -0.261 OA
ATOM     10  O   UNL     1      45.965  16.971  17.496  0.00  0.00    -0.414 OA
ATOM     11  C   UNL     1      44.458  19.338  18.253  0.00  0.00    +0.106 A 
ATOM     12  C   UNL     1      43.869  20.422  18.887  0.00  0.00    +0.124 A 
ATOM     15  C   UNL     1      44.611  21.301  19.677  0.00  0.00    +0.109 A 
ATOM     18  C   UNL     1      45.979  21.109  19.839  0.00  0.00    +0.127 A 
ATOM     19  O   UNL     1      46.754  21.960  20.558  0.00  0.00    -0.262 OA
ATOM     20  C   UNL     1      48.622  18.778  18.584  0.00  0.00    +0.116 A 
ATOM     21  C   UNL     1      47.933  21.519  21.063  0.00  0.00    +0.536 A 
ATOM     22  O   UNL     1      48.340  21.933  22.132  0.00  0.00    -0.415 OA
ATOM     23  C   UNL     1      49.989  18.576  18.764  0.00  0.00    +0.135 A 
ENDROOT
BRANCH  12  13
ATOM     13  O   UNL     1      42.535  20.634  18.735  0.00  0.00    -0.470 OA
ATOM     14  H   UNL     1      42.195  20.394  17.862  0.00  0.00    +0.399 HD
ENDBRANCH  12  13
BRANCH  15  16
ATOM     16  O   UNL     1      43.996  22.347  20.289  0.00  0.00    -0.311 OA
ATOM     17  C   UNL     1      43.941  23.580  19.568  0.00  0.00    +0.243 C 
ENDBRANCH  15  16
BRANCH  23  24
ATOM     24  O   UNL     1      50.635  17.627  18.038  0.00  0.00    -0.318 OA
ATOM     25  C   UNL     1      51.077  17.999  16.731  0.00  0.00    +0.244 C 
ENDBRANCH  23  24
TORSDOF 3
ENDMDL
MODEL 6
REMARK VINA RESULT:      -5.2      2.631      6.956
REMARK  Name = ZINC95485957
REMARK  6 active torsions:
REMARK  status: ('A' for Active; 'I' for Inactive)
REMARK    1  A    between atoms: C1_1  and  C2_2
REMARK    2  A    between atoms: C9_9  and  O4_17
REMARK    3  A    between atoms: C10_10  and  O3_15
REMARK    4  A    between atoms: O3_15  and  C13_16
REMARK    5  A    between atoms: C16_22  and  O7_23
REMARK    6  A    between atoms: O7_23  and  C17_24
REMARK                            x       y       z     vdW  Elec       q    Type
REMARK                         _______ _______ _______ _____ _____    ______ ____
ROOT
ATOM      1  C   UNL     1      45.245  21.919  19.489  0.00  0.00    +0.130 C 
ATOM      2  C   UNL     1      46.180  20.801  19.106  0.00  0.00    -0.071 A 
ATOM      3  C   UNL     1      47.544  20.998  19.215  0.00  0.00    +0.124 A 
ATOM      4  C   UNL     1      48.409  19.971  18.861  0.00  0.00    -0.132 A 
ATOM      5  C   UNL     1      47.864  18.750  18.409  0.00  0.00    -0.076 A 
ATOM      6  C   UNL     1      48.800  17.678  18.051  0.00  0.00    -0.077 A 
ATOM      7  C   UNL     1      48.269  16.534  17.415  0.00  0.00    -0.122 A 
ATOM      8  C   UNL     1      46.823  16.536  17.149  0.00  0.00    +0.537 A 
ATOM      9  O   UNL     1      46.021  17.343  17.886  0.00  0.00    -0.261 OA
ATOM     10  O   UNL     1      46.353  15.824  16.281  0.00  0.00    -0.414 OA
ATOM     11  C   UNL     1      49.132  15.504  17.068  0.00  0.00    +0.106 A 
ATOM     12  C   UNL     1      50.487  15.635  17.335  0.00  0.00    +0.124 A 
ATOM     15  C   UNL     1      51.005  16.774  17.952  0.00  0.00    +0.109 A 
ATOM     18  C   UNL     1      50.158  17.813  18.326  0.00  0.00    +0.127 A 
ATOM     19  O   UNL     1      50.604  18.920  18.970  0.00  0.00    -0.262 OA
ATOM     20  C   UNL     1      46.491  18.547  18.301  0.00  0.00    +0.116 A 
ATOM     21  C   UNL     1      49.876  20.063  18.908  0.00  0.00    +0.536 A 
ATOM     22  O   UNL     1      50.429  21.146  18.891  0.00  0.00    -0.415 OA
ATOM     23  C   UNL     1      45.646  19.597  18.657  0.00  0.00    +0.135 A 
ENDROOT
BRANCH  12  13
ATOM     13  O   UNL     1      51.332  14.628  16.986  0.00  0.00    -0.470 OA
ATOM     14  H   UNL     1      51.435  13.947  17.665  0.00  0.00    +0.399 HD
ENDBRANCH  12  13
BRANCH  15  16
ATOM     16  O   UNL     1      52.340  16.869  18.189  0.00  0.00    -0.311 OA
ATOM     17  C   UNL     1      52.813  16.376  19.445  0.00  0.00    +0.243 C 
ENDBRANCH  15  16
BRANCH  23  24
ATOM     24  O   UNL     1      44.300  19.446  18.561  0.00  0.00    -0.318 OA
ATOM     25  C   UNL     1      43.628  18.887  19.692  0.00  0.00    +0.244 C 
ENDBRANCH  23  24
TORSDOF 3
ENDMDL
MODEL 7
REMARK VINA RESULT:      -5.2      3.670      7.237
REMARK  Name = ZINC95485957
REMARK  6 active torsions:
REMARK  status: ('A' for Active; 'I' for Inactive)
REMARK    1  A    between atoms: C1_1  and  C2_2
REMARK    2  A    between atoms: C9_9  and  O4_17
REMARK    3  A    between atoms: C10_10  and  O3_15
REMARK    4  A    between atoms: O3_15  and  C13_16
REMARK    5  A    between atoms: C16_22  and  O7_23
REMARK    6  A    between atoms: O7_23  and  C17_24
REMARK                            x       y       z     vdW  Elec       q    Type
REMARK                         _______ _______ _______ _____ _____    ______ ____
ROOT
ATOM      1  C   UNL     1      44.300  17.566  20.117  0.00  0.00    +0.130 C 
ATOM      2  C   UNL     1      45.682  18.133  19.913  0.00  0.00    -0.071 A 
ATOM      3  C   UNL     1      46.503  17.574  18.951  0.00  0.00    +0.124 A 
ATOM      4  C   UNL     1      47.777  18.092  18.762  0.00  0.00    -0.132 A 
ATOM      5  C   UNL     1      48.190  19.185  19.554  0.00  0.00    -0.076 A 
ATOM      6  C   UNL     1      49.538  19.720  19.326  0.00  0.00    -0.077 A 
ATOM      7  C   UNL     1      50.024  20.676  20.244  0.00  0.00    -0.122 A 
ATOM      8  C   UNL     1      49.137  21.030  21.362  0.00  0.00    +0.537 A 
ATOM      9  O   UNL     1      47.804  20.820  21.234  0.00  0.00    -0.261 OA
ATOM     10  O   UNL     1      49.592  21.505  22.386  0.00  0.00    -0.414 OA
ATOM     11  C   UNL     1      51.295  21.200  20.051  0.00  0.00    +0.106 A 
ATOM     12  C   UNL     1      52.055  20.757  18.978  0.00  0.00    +0.124 A 
ATOM     15  C   UNL     1      51.572  19.802  18.083  0.00  0.00    +0.109 A 
ATOM     18  C   UNL     1      50.295  19.275  18.245  0.00  0.00    +0.127 A 
ATOM     19  O   UNL     1      49.760  18.380  17.377  0.00  0.00    -0.262 OA
ATOM     20  C   UNL     1      47.365  19.753  20.521  0.00  0.00    +0.116 A 
ATOM     21  C   UNL     1      48.753  17.572  17.792  0.00  0.00    +0.536 A 
ATOM     22  O   UNL     1      48.658  16.436  17.368  0.00  0.00    -0.415 OA
ATOM     23  C   UNL     1      46.093  19.209  20.693  0.00  0.00    +0.135 A 
ENDROOT
BRANCH  12  13
ATOM     13  O   UNL     1      53.303  21.265  18.796  0.00  0.00    -0.470 OA
ATOM     14  H   UNL     1      53.953  20.614  18.495  0.00  0.00    +0.399 HD
ENDBRANCH  12  13
BRANCH  15  16
ATOM     16  O   UNL     1      52.351  19.386  17.050  0.00  0.00    -0.311 OA
ATOM     17  C   UNL     1      52.147  20.024  15.786  0.00  0.00    +0.243 C 
ENDBRANCH  15  16
BRANCH  23  24
ATOM     24  O   UNL     1      45.256  19.727  21.629  0.00  0.00    -0.318 OA
ATOM     25  C   UNL     1      44.493  20.875  21.253  0.00  0.00    +0.244 C 
ENDBRANCH  23  24
TORSDOF 3
ENDMDL
MODEL 8
REMARK VINA RESULT:      -5.1      1.853      2.714
REMARK  Name = ZINC95485957
REMARK  6 active torsions:
REMARK  status: ('A' for Active; 'I' for Inactive)
REMARK    1  A    between atoms: C1_1  and  C2_2
REMARK    2  A    between atoms: C9_9  and  O4_17
REMARK    3  A    between atoms: C10_10  and  O3_15
REMARK    4  A    between atoms: O3_15  and  C13_16
REMARK    5  A    between atoms: C16_22  and  O7_23
REMARK    6  A    between atoms: O7_23  and  C17_24
REMARK                            x       y       z     vdW  Elec       q    Type
REMARK                         _______ _______ _______ _____ _____    ______ ____
ROOT
ATOM      1  C   UNL     1      51.255  17.154  16.881  0.00  0.00    +0.130 C 
ATOM      2  C   UNL     1      49.965  17.554  17.548  0.00  0.00    -0.071 A 
ATOM      3  C   UNL     1      49.862  18.812  18.114  0.00  0.00    +0.124 A 
ATOM      4  C   UNL     1      48.676  19.183  18.733  0.00  0.00    -0.132 A 
ATOM      5  C   UNL     1      47.605  18.264  18.753  0.00  0.00    -0.076 A 
ATOM      6  C   UNL     1      46.358  18.686  19.403  0.00  0.00    -0.077 A 
ATOM      7  C   UNL     1      45.360  17.707  19.598  0.00  0.00    -0.122 A 
ATOM      8  C   UNL     1      45.676  16.342  19.151  0.00  0.00    +0.537 A 
ATOM      9  O   UNL     1      46.632  16.167  18.205  0.00  0.00    -0.261 OA
ATOM     10  O   UNL     1      45.088  15.386  19.620  0.00  0.00    -0.414 OA
ATOM     11  C   UNL     1      44.171  18.080  20.210  0.00  0.00    +0.106 A 
ATOM     12  C   UNL     1      44.005  19.392  20.627  0.00  0.00    +0.124 A 
ATOM     15  C   UNL     1      45.001  20.352  20.441  0.00  0.00    +0.109 A 
ATOM     18  C   UNL     1      46.195  20.007  19.815  0.00  0.00    +0.127 A 
ATOM     19  O   UNL     1      47.176  20.911  19.569  0.00  0.00    -0.262 OA
ATOM     20  C   UNL     1      47.703  16.999  18.180  0.00  0.00    +0.116 A 
ATOM     21  C   UNL     1      48.449  20.478  19.392  0.00  0.00    +0.536 A 
ATOM     22  O   UNL     1      49.388  21.151  19.772  0.00  0.00    -0.415 OA
ATOM     23  C   UNL     1      48.907  16.651  17.572  0.00  0.00    +0.135 A 
ENDROOT
BRANCH  12  13
ATOM     13  O   UNL     1      42.843  19.753  21.232  0.00  0.00    -0.470 OA
ATOM     14  H   UNL     1      42.540  19.130  21.908  0.00  0.00    +0.399 HD
ENDBRANCH  12  13
BRANCH  15  16
ATOM     16  O   UNL     1      44.805  21.625  20.871  0.00  0.00    -0.311 OA
ATOM     17  C   UNL     1      44.248  22.549  19.933  0.00  0.00    +0.243 C 
ENDBRANCH  15  16
BRANCH  23  24
ATOM     24  O   UNL     1      49.051  15.424  17.007  0.00  0.00    -0.318 OA
ATOM     25  C   UNL     1      49.373  14.341  17.882  0.00  0.00    +0.244 C 
ENDBRANCH  23  24
TORSDOF 3
ENDMDL
MODEL 9
REMARK VINA RESULT:      -5.1      3.908      6.902
REMARK  Name = ZINC95485957
REMARK  6 active torsions:
REMARK  status: ('A' for Active; 'I' for Inactive)
REMARK    1  A    between atoms: C1_1  and  C2_2
REMARK    2  A    between atoms: C9_9  and  O4_17
REMARK    3  A    between atoms: C10_10  and  O3_15
REMARK    4  A    between atoms: O3_15  and  C13_16
REMARK    5  A    between atoms: C16_22  and  O7_23
REMARK    6  A    between atoms: O7_23  and  C17_24
REMARK                            x       y       z     vdW  Elec       q    Type
REMARK                         _______ _______ _______ _____ _____    ______ ____
ROOT
ATOM      1  C   UNL     1      52.057  20.810  18.504  0.00  0.00    +0.130 C 
ATOM      2  C   UNL     1      51.146  19.642  18.225  0.00  0.00    -0.071 A 
ATOM      3  C   UNL     1      51.656  18.533  17.576  0.00  0.00    +0.124 A 
ATOM      4  C   UNL     1      50.819  17.456  17.314  0.00  0.00    -0.132 A 
ATOM      5  C   UNL     1      49.473  17.525  17.732  0.00  0.00    -0.076 A 
ATOM      6  C   UNL     1      48.613  16.369  17.453  0.00  0.00    -0.077 A 
ATOM      7  C   UNL     1      47.229  16.513  17.690  0.00  0.00    -0.122 A 
ATOM      8  C   UNL     1      46.773  17.825  18.175  0.00  0.00    +0.537 A 
ATOM      9  O   UNL     1      47.662  18.640  18.793  0.00  0.00    -0.261 OA
ATOM     10  O   UNL     1      45.617  18.172  18.024  0.00  0.00    -0.414 OA
ATOM     11  C   UNL     1      46.393  15.434  17.436  0.00  0.00    +0.106 A 
ATOM     12  C   UNL     1      46.936  14.257  16.941  0.00  0.00    +0.124 A 
ATOM     15  C   UNL     1      48.304  14.127  16.697  0.00  0.00    +0.109 A 
ATOM     18  C   UNL     1      49.164  15.189  16.960  0.00  0.00    +0.127 A 
ATOM     19  O   UNL     1      50.507  15.099  16.786  0.00  0.00    -0.262 OA
ATOM     20  C   UNL     1      48.958  18.639  18.390  0.00  0.00    +0.116 A 
ATOM     21  C   UNL     1      51.231  16.232  16.611  0.00  0.00    +0.536 A 
ATOM     22  O   UNL     1      52.206  16.234  15.884  0.00  0.00    -0.415 OA
ATOM     23  C   UNL     1      49.818  19.708  18.633  0.00  0.00    +0.135 A 
ENDROOT
BRANCH  12  13
ATOM     13  O   UNL     1      46.115  13.204  16.685  0.00  0.00    -0.470 OA
ATOM     14  H   UNL     1      45.197  13.454  16.509  0.00  0.00    +0.399 HD
ENDBRANCH  12  13
BRANCH  15  16
ATOM     16  O   UNL     1      48.797  12.961  16.203  0.00  0.00    -0.311 OA
ATOM     17  C   UNL     1      48.905  12.853  14.782  0.00  0.00    +0.243 C 
ENDBRANCH  15  16
BRANCH  23  24
ATOM     24  O   UNL     1      49.357  20.818  19.265  0.00  0.00    -0.318 OA
ATOM     25  C   UNL     1      49.320  20.782  20.694  0.00  0.00    +0.244 C 
ENDBRANCH  23  24
TORSDOF 3
ENDMDL
