MODEL 1
REMARK VINA RESULT:      -6.7      0.000      0.000
REMARK  Name = ZINC95486247
REMARK  18 active torsions:
REMARK  status: ('A' for Active; 'I' for Inactive)
REMARK    1  A    between atoms: C1_1  and  C2_2
REMARK    2  A    between atoms: C2_2  and  C3_4
REMARK    3  A    between atoms: C2_2  and  C10_14
REMARK    4  A    between atoms: C3_4  and  C4_5
REMARK    5  A    between atoms: C4_5  and  C5_6
REMARK    6  A    between atoms: C5_6  and  O3_13
REMARK    7  A    between atoms: C6_7  and  C7_8
REMARK    8  A    between atoms: C6_7  and  O2_12
REMARK    9  A    between atoms: C7_8  and  C8_9
REMARK   10  A    between atoms: C7_8  and  C9_10
REMARK   11  A    between atoms: C7_8  and  O1_11
REMARK   12  A    between atoms: C13_18  and  C31_41
REMARK   13  A    between atoms: C14_19  and  C30_40
REMARK   14  A    between atoms: C22_28  and  C29_39
REMARK   15  A    between atoms: C23_29  and  O5_38
REMARK   16  A    between atoms: C25_32  and  O4_37
REMARK   17  A    between atoms: C26_34  and  C27_35
REMARK   18  A    between atoms: C26_34  and  C28_36
REMARK                            x       y       z     vdW  Elec       q    Type
REMARK                         _______ _______ _______ _____ _____    ______ ____
ROOT
ATOM      3  C   UNL     1      49.089  16.020  19.442  0.00  0.00    +0.002 C 
ATOM      4  C   UNL     1      49.093  16.237  17.907  0.00  0.00    +0.011 C 
ATOM      5  C   UNL     1      47.905  17.195  17.598  0.00  0.00    +0.021 C 
ATOM      6  C   UNL     1      46.981  16.960  18.807  0.00  0.00    -0.019 C 
ATOM      7  C   UNL     1      46.289  15.599  18.679  0.00  0.00    +0.039 C 
ATOM      8  C   UNL     1      45.980  18.034  19.079  0.00  0.00    -0.064 C 
ATOM      9  C   UNL     1      45.482  18.800  18.132  0.00  0.00    -0.033 C 
ATOM     10  C   UNL     1      44.456  19.865  18.369  0.00  0.00    +0.059 C 
ATOM     11  C   UNL     1      44.376  20.311  19.827  0.00  0.00    +0.025 C 
ATOM     12  C   UNL     1      44.367  19.107  20.759  0.00  0.00    +0.004 C 
ATOM     13  C   UNL     1      43.072  18.297  20.523  0.00  0.00    +0.040 C 
ATOM     14  C   UNL     1      44.374  19.556  22.221  0.00  0.00    +0.173 C 
ATOM     17  C   UNL     1      45.589  20.441  22.476  0.00  0.00    -0.038 C 
ATOM     18  C   UNL     1      45.500  21.709  21.638  0.00  0.00    +0.171 C 
ATOM     21  C   UNL     1      45.367  21.407  20.148  0.00  0.00    -0.033 C 
ATOM     22  C   UNL     1      46.756  21.124  19.571  0.00  0.00    +0.027 C 
ATOM     23  C   UNL     1      44.862  22.713  19.482  0.00  0.00    +0.025 C 
ATOM     24  C   UNL     1      45.545  18.205  20.488  0.00  0.00    -0.061 C 
ATOM     25  C   UNL     1      46.165  17.572  21.469  0.00  0.00    -0.053 C 
ATOM     26  C   UNL     1      47.330  16.630  21.255  0.00  0.00    +0.073 C 
ATOM     27  C   UNL     1      48.021  16.985  19.962  0.00  0.00    -0.043 C 
ATOM     28  C   UNL     1      48.661  18.371  20.097  0.00  0.00    +0.028 C 
ENDROOT
BRANCH   3   2
ATOM      1  C   UNL     1      50.803  15.414  21.157  0.00  0.00    +0.013 C 
ATOM      2  C   UNL     1      50.453  16.387  20.030  0.00  0.00    -0.007 C 
BRANCH   2  29
ATOM     29  C   UNL     1      51.520  16.303  18.935  0.00  0.00    +0.021 C 
BRANCH  29  30
ATOM     30  C   UNL     1      52.679  17.241  19.278  0.00  0.00    +0.108 C 
BRANCH  30  31
ATOM     31  C   UNL     1      52.237  18.671  19.103  0.00  0.00    +0.052 C 
ATOM     34  C   UNL     1      52.139  19.187  17.892  0.00  0.00    -0.083 C 
BRANCH  34  37
ATOM     37  C   UNL     1      51.692  20.615  17.715  0.00  0.00    +0.143 C 
ATOM     40  C   UNL     1      50.235  20.753  18.160  0.00  0.00    +0.029 C 
ATOM     41  C   UNL     1      51.815  21.010  16.243  0.00  0.00    +0.074 C 
BRANCH  37  38
ATOM     38  O   UNL     1      52.515  21.474  18.509  0.00  0.00    -0.548 OA
ATOM     39  H   UNL     1      52.145  21.679  19.378  0.00  0.00    +0.380 HD
ENDBRANCH  37  38
ENDBRANCH  34  37
BRANCH  31  32
ATOM     32  O   UNL     1      51.939  19.429  20.192  0.00  0.00    -0.485 OA
ATOM     33  H   UNL     1      51.028  19.754  20.208  0.00  0.00    +0.387 HD
ENDBRANCH  31  32
BRANCH  34  35
ATOM     35  O   UNL     1      52.443  18.431  16.803  0.00  0.00    -0.469 OA
ATOM     36  H   UNL     1      53.044  18.861  16.180  0.00  0.00    +0.387 HD
ENDBRANCH  34  35
ENDBRANCH  30  31
ENDBRANCH  29  30
ENDBRANCH   2  29
ENDBRANCH   3   2
BRANCH  14  15
ATOM     15  O   UNL     1      43.171  20.274  22.505  0.00  0.00    -0.545 OA
ATOM     16  H   UNL     1      42.540  19.785  23.051  0.00  0.00    +0.371 HD
ENDBRANCH  14  15
BRANCH  18  19
ATOM     19  O   UNL     1      44.403  22.518  22.068  0.00  0.00    -0.548 OA
ATOM     20  H   UNL     1      44.247  22.494  23.022  0.00  0.00    +0.367 HD
ENDBRANCH  18  19
TORSDOF 10
ENDMDL
MODEL 2
REMARK VINA RESULT:      -5.9      4.071      6.703
REMARK  Name = ZINC95486247
REMARK  18 active torsions:
REMARK  status: ('A' for Active; 'I' for Inactive)
REMARK    1  A    between atoms: C1_1  and  C2_2
REMARK    2  A    between atoms: C2_2  and  C3_4
REMARK    3  A    between atoms: C2_2  and  C10_14
REMARK    4  A    between atoms: C3_4  and  C4_5
REMARK    5  A    between atoms: C4_5  and  C5_6
REMARK    6  A    between atoms: C5_6  and  O3_13
REMARK    7  A    between atoms: C6_7  and  C7_8
REMARK    8  A    between atoms: C6_7  and  O2_12
REMARK    9  A    between atoms: C7_8  and  C8_9
REMARK   10  A    between atoms: C7_8  and  C9_10
REMARK   11  A    between atoms: C7_8  and  O1_11
REMARK   12  A    between atoms: C13_18  and  C31_41
REMARK   13  A    between atoms: C14_19  and  C30_40
REMARK   14  A    between atoms: C22_28  and  C29_39
REMARK   15  A    between atoms: C23_29  and  O5_38
REMARK   16  A    between atoms: C25_32  and  O4_37
REMARK   17  A    between atoms: C26_34  and  C27_35
REMARK   18  A    between atoms: C26_34  and  C28_36
REMARK                            x       y       z     vdW  Elec       q    Type
REMARK                         _______ _______ _______ _____ _____    ______ ____
ROOT
ATOM      3  C   UNL     1      49.634  13.419  17.951  0.00  0.00    +0.002 C 
ATOM      4  C   UNL     1      48.439  13.704  17.004  0.00  0.00    +0.011 C 
ATOM      5  C   UNL     1      48.175  15.237  17.082  0.00  0.00    +0.021 C 
ATOM      6  C   UNL     1      48.772  15.595  18.455  0.00  0.00    -0.019 C 
ATOM      7  C   UNL     1      47.852  15.092  19.572  0.00  0.00    +0.039 C 
ATOM      8  C   UNL     1      49.109  17.036  18.662  0.00  0.00    -0.064 C 
ATOM      9  C   UNL     1      48.467  18.011  18.056  0.00  0.00    -0.033 C 
ATOM     10  C   UNL     1      48.763  19.465  18.265  0.00  0.00    +0.059 C 
ATOM     11  C   UNL     1      50.146  19.719  18.859  0.00  0.00    +0.025 C 
ATOM     12  C   UNL     1      50.415  18.773  20.022  0.00  0.00    +0.004 C 
ATOM     13  C   UNL     1      49.430  19.091  21.169  0.00  0.00    +0.040 C 
ATOM     14  C   UNL     1      51.834  18.970  20.560  0.00  0.00    +0.173 C 
ATOM     17  C   UNL     1      52.840  18.760  19.433  0.00  0.00    -0.038 C 
ATOM     18  C   UNL     1      52.641  19.812  18.351  0.00  0.00    +0.171 C 
ATOM     21  C   UNL     1      51.219  19.810  17.798  0.00  0.00    -0.033 C 
ATOM     22  C   UNL     1      51.094  18.704  16.747  0.00  0.00    +0.027 C 
ATOM     23  C   UNL     1      51.039  21.159  17.055  0.00  0.00    +0.025 C 
ATOM     24  C   UNL     1      50.213  17.337  19.607  0.00  0.00    -0.061 C 
ATOM     25  C   UNL     1      50.981  16.371  20.081  0.00  0.00    -0.053 C 
ATOM     26  C   UNL     1      50.806  14.910  19.727  0.00  0.00    +0.073 C 
ATOM     27  C   UNL     1      50.109  14.805  18.393  0.00  0.00    -0.043 C 
ATOM     28  C   UNL     1      51.028  15.361  17.300  0.00  0.00    +0.028 C 
ENDROOT
BRANCH   3   2
ATOM      1  C   UNL     1      51.332  11.590  18.061  0.00  0.00    +0.013 C 
ATOM      2  C   UNL     1      50.751  12.704  17.189  0.00  0.00    -0.007 C 
BRANCH   2  29
ATOM     29  C   UNL     1      50.185  12.100  15.902  0.00  0.00    +0.021 C 
BRANCH  29  30
ATOM     30  C   UNL     1      51.336  11.665  14.993  0.00  0.00    +0.108 C 
BRANCH  30  31
ATOM     31  C   UNL     1      51.349  12.523  13.754  0.00  0.00    +0.052 C 
ATOM     34  C   UNL     1      51.121  11.979  12.573  0.00  0.00    -0.083 C 
BRANCH  34  37
ATOM     37  C   UNL     1      51.129  12.837  11.334  0.00  0.00    +0.143 C 
ATOM     40  C   UNL     1      49.819  13.624  11.250  0.00  0.00    +0.029 C 
ATOM     41  C   UNL     1      51.268  11.947  10.098  0.00  0.00    +0.074 C 
BRANCH  37  38
ATOM     38  O   UNL     1      52.228  13.748  11.392  0.00  0.00    -0.548 OA
ATOM     39  H   UNL     1      52.331  14.292  10.600  0.00  0.00    +0.380 HD
ENDBRANCH  37  38
ENDBRANCH  34  37
BRANCH  31  32
ATOM     32  O   UNL     1      51.597  13.857  13.852  0.00  0.00    -0.485 OA
ATOM     33  H   UNL     1      50.888  14.415  13.505  0.00  0.00    +0.387 HD
ENDBRANCH  31  32
BRANCH  34  35
ATOM     35  O   UNL     1      50.879  10.645  12.473  0.00  0.00    -0.469 OA
ATOM     36  H   UNL     1      50.615  10.229  13.304  0.00  0.00    +0.387 HD
ENDBRANCH  34  35
ENDBRANCH  30  31
ENDBRANCH  29  30
ENDBRANCH   2  29
ENDBRANCH   3   2
BRANCH  14  15
ATOM     15  O   UNL     1      51.961  20.289  21.097  0.00  0.00    -0.545 OA
ATOM     16  H   UNL     1      52.406  20.913  20.508  0.00  0.00    +0.371 HD
ENDBRANCH  14  15
BRANCH  18  19
ATOM     19  O   UNL     1      52.967  21.111  18.848  0.00  0.00    -0.548 OA
ATOM     20  H   UNL     1      53.915  21.302  18.860  0.00  0.00    +0.367 HD
ENDBRANCH  18  19
TORSDOF 10
ENDMDL
MODEL 3
REMARK VINA RESULT:      -5.9      3.233      7.622
REMARK  Name = ZINC95486247
REMARK  18 active torsions:
REMARK  status: ('A' for Active; 'I' for Inactive)
REMARK    1  A    between atoms: C1_1  and  C2_2
REMARK    2  A    between atoms: C2_2  and  C3_4
REMARK    3  A    between atoms: C2_2  and  C10_14
REMARK    4  A    between atoms: C3_4  and  C4_5
REMARK    5  A    between atoms: C4_5  and  C5_6
REMARK    6  A    between atoms: C5_6  and  O3_13
REMARK    7  A    between atoms: C6_7  and  C7_8
REMARK    8  A    between atoms: C6_7  and  O2_12
REMARK    9  A    between atoms: C7_8  and  C8_9
REMARK   10  A    between atoms: C7_8  and  C9_10
REMARK   11  A    between atoms: C7_8  and  O1_11
REMARK   12  A    between atoms: C13_18  and  C31_41
REMARK   13  A    between atoms: C14_19  and  C30_40
REMARK   14  A    between atoms: C22_28  and  C29_39
REMARK   15  A    between atoms: C23_29  and  O5_38
REMARK   16  A    between atoms: C25_32  and  O4_37
REMARK   17  A    between atoms: C26_34  and  C27_35
REMARK   18  A    between atoms: C26_34  and  C28_36
REMARK                            x       y       z     vdW  Elec       q    Type
REMARK                         _______ _______ _______ _____ _____    ______ ____
ROOT
ATOM      3  C   UNL     1      47.182  20.547  20.834  0.00  0.00    +0.002 C 
ATOM      4  C   UNL     1      47.904  21.155  19.604  0.00  0.00    +0.011 C 
ATOM      5  C   UNL     1      48.454  19.953  18.781  0.00  0.00    +0.021 C 
ATOM      6  C   UNL     1      48.561  18.853  19.853  0.00  0.00    -0.019 C 
ATOM      7  C   UNL     1      49.751  19.134  20.775  0.00  0.00    +0.039 C 
ATOM      8  C   UNL     1      48.612  17.450  19.343  0.00  0.00    -0.064 C 
ATOM      9  C   UNL     1      49.112  17.138  18.167  0.00  0.00    -0.033 C 
ATOM     10  C   UNL     1      49.204  15.739  17.640  0.00  0.00    +0.059 C 
ATOM     11  C   UNL     1      48.266  14.765  18.349  0.00  0.00    +0.025 C 
ATOM     12  C   UNL     1      48.335  14.954  19.859  0.00  0.00    +0.004 C 
ATOM     13  C   UNL     1      49.748  14.568  20.351  0.00  0.00    +0.040 C 
ATOM     14  C   UNL     1      47.333  14.038  20.564  0.00  0.00    +0.173 C 
ATOM     17  C   UNL     1      45.929  14.318  20.037  0.00  0.00    -0.038 C 
ATOM     18  C   UNL     1      45.850  13.982  18.554  0.00  0.00    +0.171 C 
ATOM     21  C   UNL     1      46.886  14.744  17.733  0.00  0.00    -0.033 C 
ATOM     22  C   UNL     1      46.356  16.150  17.443  0.00  0.00    +0.027 C 
ATOM     23  C   UNL     1      46.986  14.012  16.370  0.00  0.00    +0.025 C 
ATOM     24  C   UNL     1      48.078  16.391  20.236  0.00  0.00    -0.061 C 
ATOM     25  C   UNL     1      47.412  16.705  21.335  0.00  0.00    -0.053 C 
ATOM     26  C   UNL     1      47.152  18.127  21.781  0.00  0.00    +0.073 C 
ATOM     27  C   UNL     1      47.198  19.038  20.579  0.00  0.00    -0.043 C 
ATOM     28  C   UNL     1      46.028  18.702  19.648  0.00  0.00    +0.028 C 
ENDROOT
BRANCH   3   2
ATOM      1  C   UNL     1      45.596  22.053  22.044  0.00  0.00    +0.013 C 
ATOM      2  C   UNL     1      45.738  21.048  20.899  0.00  0.00    -0.007 C 
BRANCH   2  29
ATOM     29  C   UNL     1      45.374  21.728  19.577  0.00  0.00    +0.021 C 
BRANCH  29  30
ATOM     30  C   UNL     1      44.067  22.504  19.744  0.00  0.00    +0.108 C 
BRANCH  30  31
ATOM     31  C   UNL     1      42.904  21.547  19.689  0.00  0.00    +0.052 C 
ATOM     34  C   UNL     1      41.821  21.864  19.004  0.00  0.00    -0.083 C 
BRANCH  34  37
ATOM     37  C   UNL     1      40.660  20.905  18.945  0.00  0.00    +0.143 C 
ATOM     40  C   UNL     1      41.012  19.733  18.026  0.00  0.00    +0.029 C 
ATOM     41  C   UNL     1      39.428  21.628  18.397  0.00  0.00    +0.074 C 
BRANCH  37  38
ATOM     38  O   UNL     1      40.380  20.413  20.257  0.00  0.00    -0.548 OA
ATOM     39  H   UNL     1      39.438  20.377  20.471  0.00  0.00    +0.380 HD
ENDBRANCH  37  38
ENDBRANCH  34  37
BRANCH  31  32
ATOM     32  O   UNL     1      42.971  20.357  20.345  0.00  0.00    -0.485 OA
ATOM     33  H   UNL     1      42.187  19.802  20.232  0.00  0.00    +0.387 HD
ENDBRANCH  31  32
BRANCH  34  35
ATOM     35  O   UNL     1      41.751  23.056  18.353  0.00  0.00    -0.469 OA
ATOM     36  H   UNL     1      41.251  23.734  18.826  0.00  0.00    +0.387 HD
ENDBRANCH  34  35
ENDBRANCH  30  31
ENDBRANCH  29  30
ENDBRANCH   2  29
ENDBRANCH   3   2
BRANCH  14  15
ATOM     15  O   UNL     1      47.686  12.673  20.328  0.00  0.00    -0.545 OA
ATOM     16  H   UNL     1      46.983  12.043  20.535  0.00  0.00    +0.371 HD
ENDBRANCH  14  15
BRANCH  18  19
ATOM     19  O   UNL     1      46.007  12.577  18.349  0.00  0.00    -0.548 OA
ATOM     20  H   UNL     1      45.205  12.063  18.517  0.00  0.00    +0.367 HD
ENDBRANCH  18  19
TORSDOF 10
ENDMDL
MODEL 4
REMARK VINA RESULT:      -5.8      3.620      6.485
REMARK  Name = ZINC95486247
REMARK  18 active torsions:
REMARK  status: ('A' for Active; 'I' for Inactive)
REMARK    1  A    between atoms: C1_1  and  C2_2
REMARK    2  A    between atoms: C2_2  and  C3_4
REMARK    3  A    between atoms: C2_2  and  C10_14
REMARK    4  A    between atoms: C3_4  and  C4_5
REMARK    5  A    between atoms: C4_5  and  C5_6
REMARK    6  A    between atoms: C5_6  and  O3_13
REMARK    7  A    between atoms: C6_7  and  C7_8
REMARK    8  A    between atoms: C6_7  and  O2_12
REMARK    9  A    between atoms: C7_8  and  C8_9
REMARK   10  A    between atoms: C7_8  and  C9_10
REMARK   11  A    between atoms: C7_8  and  O1_11
REMARK   12  A    between atoms: C13_18  and  C31_41
REMARK   13  A    between atoms: C14_19  and  C30_40
REMARK   14  A    between atoms: C22_28  and  C29_39
REMARK   15  A    between atoms: C23_29  and  O5_38
REMARK   16  A    between atoms: C25_32  and  O4_37
REMARK   17  A    between atoms: C26_34  and  C27_35
REMARK   18  A    between atoms: C26_34  and  C28_36
REMARK                            x       y       z     vdW  Elec       q    Type
REMARK                         _______ _______ _______ _____ _____    ______ ____
ROOT
ATOM      3  C   UNL     1      47.747  14.313  18.388  0.00  0.00    +0.002 C 
ATOM      4  C   UNL     1      46.549  14.954  17.641  0.00  0.00    +0.011 C 
ATOM      5  C   UNL     1      46.748  16.495  17.735  0.00  0.00    +0.021 C 
ATOM      6  C   UNL     1      47.631  16.628  18.989  0.00  0.00    -0.019 C 
ATOM      7  C   UNL     1      46.796  16.373  20.247  0.00  0.00    +0.039 C 
ATOM      8  C   UNL     1      48.393  17.907  19.115  0.00  0.00    -0.064 C 
ATOM      9  C   UNL     1      47.968  19.042  18.605  0.00  0.00    -0.033 C 
ATOM     10  C   UNL     1      48.694  20.345  18.740  0.00  0.00    +0.059 C 
ATOM     11  C   UNL     1      50.169  20.179  19.099  0.00  0.00    +0.025 C 
ATOM     12  C   UNL     1      50.338  19.161  20.219  0.00  0.00    +0.004 C 
ATOM     13  C   UNL     1      49.679  19.710  21.504  0.00  0.00    +0.040 C 
ATOM     14  C   UNL     1      51.820  18.931  20.519  0.00  0.00    +0.173 C 
ATOM     17  C   UNL     1      52.534  18.479  19.249  0.00  0.00    -0.038 C 
ATOM     18  C   UNL     1      52.473  19.576  18.195  0.00  0.00    +0.171 C 
ATOM     21  C   UNL     1      51.040  19.994  17.878  0.00  0.00    -0.033 C 
ATOM     22  C   UNL     1      50.441  19.002  16.880  0.00  0.00    +0.027 C 
ATOM     23  C   UNL     1      51.136  21.361  17.152  0.00  0.00    +0.025 C 
ATOM     24  C   UNL     1      49.673  17.854  19.866  0.00  0.00    -0.061 C 
ATOM     25  C   UNL     1      50.199  16.696  20.226  0.00  0.00    -0.053 C 
ATOM     26  C   UNL     1      49.561  15.356  19.929  0.00  0.00    +0.073 C 
ATOM     27  C   UNL     1      48.661  15.494  18.726  0.00  0.00    -0.043 C 
ATOM     28  C   UNL     1      49.515  15.799  17.491  0.00  0.00    +0.028 C 
ENDROOT
BRANCH   3   2
ATOM      1  C   UNL     1      48.383  11.921  18.047  0.00  0.00    +0.013 C 
ATOM      2  C   UNL     1      48.479  13.334  17.469  0.00  0.00    -0.007 C 
BRANCH   2  29
ATOM     29  C   UNL     1      47.836  13.361  16.080  0.00  0.00    +0.021 C 
BRANCH  29  30
ATOM     30  C   UNL     1      48.103  12.033  15.368  0.00  0.00    +0.108 C 
BRANCH  30  31
ATOM     31  C   UNL     1      49.465  12.073  14.725  0.00  0.00    +0.052 C 
ATOM     34  C   UNL     1      49.618  12.630  13.538  0.00  0.00    -0.083 C 
BRANCH  34  37
ATOM     37  C   UNL     1      50.981  12.674  12.897  0.00  0.00    +0.143 C 
ATOM     40  C   UNL     1      51.894  13.603  13.701  0.00  0.00    +0.029 C 
ATOM     41  C   UNL     1      50.855  13.200  11.466  0.00  0.00    +0.074 C 
BRANCH  37  38
ATOM     38  O   UNL     1      51.541  11.360  12.874  0.00  0.00    -0.548 OA
ATOM     39  H   UNL     1      51.000  10.694  13.320  0.00  0.00    +0.380 HD
ENDBRANCH  37  38
ENDBRANCH  34  37
BRANCH  31  32
ATOM     32  O   UNL     1      50.537  11.535  15.368  0.00  0.00    -0.485 OA
ATOM     33  H   UNL     1      50.780  11.997  16.182  0.00  0.00    +0.387 HD
ENDBRANCH  31  32
BRANCH  34  35
ATOM     35  O   UNL     1      48.547  13.162  12.893  0.00  0.00    -0.469 OA
ATOM     36  H   UNL     1      47.724  13.124  13.398  0.00  0.00    +0.387 HD
ENDBRANCH  34  35
ENDBRANCH  30  31
ENDBRANCH  29  30
ENDBRANCH   2  29
ENDBRANCH   3   2
BRANCH  14  15
ATOM     15  O   UNL     1      52.401  20.143  21.007  0.00  0.00    -0.545 OA
ATOM     16  H   UNL     1      52.319  20.891  20.401  0.00  0.00    +0.371 HD
ENDBRANCH  14  15
BRANCH  18  19
ATOM     19  O   UNL     1      53.230  20.714  18.613  0.00  0.00    -0.548 OA
ATOM     20  H   UNL     1      53.936  20.508  19.241  0.00  0.00    +0.367 HD
ENDBRANCH  18  19
TORSDOF 10
ENDMDL
MODEL 5
REMARK VINA RESULT:      -5.8      1.666      7.093
REMARK  Name = ZINC95486247
REMARK  18 active torsions:
REMARK  status: ('A' for Active; 'I' for Inactive)
REMARK    1  A    between atoms: C1_1  and  C2_2
REMARK    2  A    between atoms: C2_2  and  C3_4
REMARK    3  A    between atoms: C2_2  and  C10_14
REMARK    4  A    between atoms: C3_4  and  C4_5
REMARK    5  A    between atoms: C4_5  and  C5_6
REMARK    6  A    between atoms: C5_6  and  O3_13
REMARK    7  A    between atoms: C6_7  and  C7_8
REMARK    8  A    between atoms: C6_7  and  O2_12
REMARK    9  A    between atoms: C7_8  and  C8_9
REMARK   10  A    between atoms: C7_8  and  C9_10
REMARK   11  A    between atoms: C7_8  and  O1_11
REMARK   12  A    between atoms: C13_18  and  C31_41
REMARK   13  A    between atoms: C14_19  and  C30_40
REMARK   14  A    between atoms: C22_28  and  C29_39
REMARK   15  A    between atoms: C23_29  and  O5_38
REMARK   16  A    between atoms: C25_32  and  O4_37
REMARK   17  A    between atoms: C26_34  and  C27_35
REMARK   18  A    between atoms: C26_34  and  C28_36
REMARK                            x       y       z     vdW  Elec       q    Type
REMARK                         _______ _______ _______ _____ _____    ______ ____
ROOT
ATOM      3  C   UNL     1      45.972  17.580  19.843  0.00  0.00    +0.002 C 
ATOM      4  C   UNL     1      45.954  17.157  21.335  0.00  0.00    +0.011 C 
ATOM      5  C   UNL     1      47.421  17.283  21.843  0.00  0.00    +0.021 C 
ATOM      6  C   UNL     1      48.225  17.157  20.536  0.00  0.00    -0.019 C 
ATOM      7  C   UNL     1      48.215  15.702  20.055  0.00  0.00    +0.039 C 
ATOM      8  C   UNL     1      49.620  17.687  20.576  0.00  0.00    -0.064 C 
ATOM      9  C   UNL     1      50.340  17.714  21.677  0.00  0.00    -0.033 C 
ATOM     10  C   UNL     1      51.751  18.213  21.743  0.00  0.00    +0.059 C 
ATOM     11  C   UNL     1      52.131  19.107  20.565  0.00  0.00    +0.025 C 
ATOM     12  C   UNL     1      51.663  18.494  19.252  0.00  0.00    +0.004 C 
ATOM     13  C   UNL     1      52.430  17.175  19.009  0.00  0.00    +0.040 C 
ATOM     14  C   UNL     1      51.966  19.431  18.082  0.00  0.00    +0.173 C 
ATOM     17  C   UNL     1      51.305  20.783  18.326  0.00  0.00    -0.038 C 
ATOM     18  C   UNL     1      51.897  21.439  19.566  0.00  0.00    +0.171 C 
ATOM     21  C   UNL     1      51.769  20.555  20.803  0.00  0.00    -0.033 C 
ATOM     22  C   UNL     1      50.364  20.716  21.388  0.00  0.00    +0.027 C 
ATOM     23  C   UNL     1      52.760  21.126  21.851  0.00  0.00    +0.025 C 
ATOM     24  C   UNL     1      50.188  18.182  19.297  0.00  0.00    -0.061 C 
ATOM     25  C   UNL     1      49.422  18.329  18.229  0.00  0.00    -0.053 C 
ATOM     26  C   UNL     1      47.945  18.002  18.205  0.00  0.00    +0.073 C 
ATOM     27  C   UNL     1      47.396  18.089  19.607  0.00  0.00    -0.043 C 
ATOM     28  C   UNL     1      47.464  19.543  20.085  0.00  0.00    +0.028 C 
ENDROOT
BRANCH   3   2
ATOM      1  C   UNL     1      44.625  18.781  18.115  0.00  0.00    +0.013 C 
ATOM      2  C   UNL     1      44.969  18.710  19.603  0.00  0.00    -0.007 C 
BRANCH   2  29
ATOM     29  C   UNL     1      43.695  18.440  20.408  0.00  0.00    +0.021 C 
BRANCH  29  30
ATOM     30  C   UNL     1      42.838  19.706  20.446  0.00  0.00    +0.108 C 
BRANCH  30  31
ATOM     31  C   UNL     1      43.642  20.841  21.024  0.00  0.00    +0.052 C 
ATOM     34  C   UNL     1      43.951  21.882  20.272  0.00  0.00    -0.083 C 
BRANCH  34  37
ATOM     37  C   UNL     1      44.751  23.020  20.851  0.00  0.00    +0.143 C 
ATOM     40  C   UNL     1      44.820  24.163  19.836  0.00  0.00    +0.029 C 
ATOM     41  C   UNL     1      46.166  22.537  21.171  0.00  0.00    +0.074 C 
BRANCH  37  38
ATOM     38  O   UNL     1      44.122  23.484  22.048  0.00  0.00    -0.548 OA
ATOM     39  H   UNL     1      43.233  23.836  21.914  0.00  0.00    +0.380 HD
ENDBRANCH  37  38
ENDBRANCH  34  37
BRANCH  31  32
ATOM     32  O   UNL     1      44.051  20.795  22.321  0.00  0.00    -0.485 OA
ATOM     33  H   UNL     1      44.891  20.332  22.452  0.00  0.00    +0.387 HD
ENDBRANCH  31  32
BRANCH  34  35
ATOM     35  O   UNL     1      43.547  21.926  18.974  0.00  0.00    -0.469 OA
ATOM     36  H   UNL     1      42.590  22.005  18.861  0.00  0.00    +0.387 HD
ENDBRANCH  34  35
ENDBRANCH  30  31
ENDBRANCH  29  30
ENDBRANCH   2  29
ENDBRANCH   3   2
BRANCH  14  15
ATOM     15  O   UNL     1      53.381  19.589  17.952  0.00  0.00    -0.545 OA
ATOM     16  H   UNL     1      53.896  18.900  18.394  0.00  0.00    +0.371 HD
ENDBRANCH  14  15
BRANCH  18  19
ATOM     19  O   UNL     1      53.269  21.775  19.349  0.00  0.00    -0.548 OA
ATOM     20  H   UNL     1      53.616  22.430  19.970  0.00  0.00    +0.367 HD
ENDBRANCH  18  19
TORSDOF 10
ENDMDL
MODEL 6
REMARK VINA RESULT:      -5.7      3.180      6.479
REMARK  Name = ZINC95486247
REMARK  18 active torsions:
REMARK  status: ('A' for Active; 'I' for Inactive)
REMARK    1  A    between atoms: C1_1  and  C2_2
REMARK    2  A    between atoms: C2_2  and  C3_4
REMARK    3  A    between atoms: C2_2  and  C10_14
REMARK    4  A    between atoms: C3_4  and  C4_5
REMARK    5  A    between atoms: C4_5  and  C5_6
REMARK    6  A    between atoms: C5_6  and  O3_13
REMARK    7  A    between atoms: C6_7  and  C7_8
REMARK    8  A    between atoms: C6_7  and  O2_12
REMARK    9  A    between atoms: C7_8  and  C8_9
REMARK   10  A    between atoms: C7_8  and  C9_10
REMARK   11  A    between atoms: C7_8  and  O1_11
REMARK   12  A    between atoms: C13_18  and  C31_41
REMARK   13  A    between atoms: C14_19  and  C30_40
REMARK   14  A    between atoms: C22_28  and  C29_39
REMARK   15  A    between atoms: C23_29  and  O5_38
REMARK   16  A    between atoms: C25_32  and  O4_37
REMARK   17  A    between atoms: C26_34  and  C27_35
REMARK   18  A    between atoms: C26_34  and  C28_36
REMARK                            x       y       z     vdW  Elec       q    Type
REMARK                         _______ _______ _______ _____ _____    ______ ____
ROOT
ATOM      3  C   UNL     1      46.289  15.648  20.382  0.00  0.00    +0.002 C 
ATOM      4  C   UNL     1      45.231  16.388  19.522  0.00  0.00    +0.011 C 
ATOM      5  C   UNL     1      45.852  17.768  19.156  0.00  0.00    +0.021 C 
ATOM      6  C   UNL     1      46.880  17.967  20.285  0.00  0.00    -0.019 C 
ATOM      7  C   UNL     1      46.161  18.317  21.591  0.00  0.00    +0.039 C 
ATOM      8  C   UNL     1      47.971  18.948  20.006  0.00  0.00    -0.064 C 
ATOM      9  C   UNL     1      47.814  19.978  19.202  0.00  0.00    -0.033 C 
ATOM     10  C   UNL     1      48.878  20.995  18.926  0.00  0.00    +0.059 C 
ATOM     11  C   UNL     1      50.284  20.505  19.266  0.00  0.00    +0.025 C 
ATOM     12  C   UNL     1      50.300  19.822  20.628  0.00  0.00    +0.004 C 
ATOM     13  C   UNL     1      49.972  20.866  21.719  0.00  0.00    +0.040 C 
ATOM     14  C   UNL     1      51.688  19.255  20.930  0.00  0.00    +0.173 C 
ATOM     17  C   UNL     1      52.097  18.289  19.823  0.00  0.00    -0.038 C 
ATOM     18  C   UNL     1      52.214  19.029  18.498  0.00  0.00    +0.171 C 
ATOM     21  C   UNL     1      50.922  19.750  18.123  0.00  0.00    -0.033 C 
ATOM     22  C   UNL     1      49.961  18.747  17.479  0.00  0.00    +0.027 C 
ATOM     23  C   UNL     1      51.300  20.779  17.027  0.00  0.00    +0.025 C 
ATOM     24  C   UNL     1      49.267  18.725  20.695  0.00  0.00    -0.061 C 
ATOM     25  C   UNL     1      49.497  17.605  21.358  0.00  0.00    -0.053 C 
ATOM     26  C   UNL     1      48.488  16.484  21.487  0.00  0.00    +0.073 C 
ATOM     27  C   UNL     1      47.524  16.552  20.328  0.00  0.00    -0.043 C 
ATOM     28  C   UNL     1      48.277  16.249  19.029  0.00  0.00    +0.028 C 
ENDROOT
BRANCH   3   2
ATOM      1  C   UNL     1      46.857  13.265  20.875  0.00  0.00    +0.013 C 
ATOM      2  C   UNL     1      46.613  14.287  19.763  0.00  0.00    -0.007 C 
BRANCH   2  29
ATOM     29  C   UNL     1      45.438  13.828  18.897  0.00  0.00    +0.021 C 
BRANCH  29  30
ATOM     30  C   UNL     1      45.847  12.590  18.097  0.00  0.00    +0.108 C 
BRANCH  30  31
ATOM     31  C   UNL     1      46.693  13.008  16.922  0.00  0.00    +0.052 C 
ATOM     34  C   UNL     1      47.596  12.180  16.431  0.00  0.00    -0.083 C 
BRANCH  34  37
ATOM     37  C   UNL     1      48.439  12.595  15.253  0.00  0.00    +0.143 C 
ATOM     40  C   UNL     1      49.093  11.359  14.633  0.00  0.00    +0.029 C 
ATOM     41  C   UNL     1      49.525  13.566  15.720  0.00  0.00    +0.074 C 
BRANCH  37  38
ATOM     38  O   UNL     1      47.613  13.236  14.279  0.00  0.00    -0.548 OA
ATOM     39  H   UNL     1      47.660  12.838  13.400  0.00  0.00    +0.380 HD
ENDBRANCH  37  38
ENDBRANCH  34  37
BRANCH  31  32
ATOM     32  O   UNL     1      46.526  14.239  16.367  0.00  0.00    -0.485 OA
ATOM     33  H   UNL     1      45.611  14.440  16.125  0.00  0.00    +0.387 HD
ENDBRANCH  31  32
BRANCH  34  35
ATOM     35  O   UNL     1      47.768  10.952  16.990  0.00  0.00    -0.469 OA
ATOM     36  H   UNL     1      48.173  10.303  16.399  0.00  0.00    +0.387 HD
ENDBRANCH  34  35
ENDBRANCH  30  31
ENDBRANCH  29  30
ENDBRANCH   2  29
ENDBRANCH   3   2
BRANCH  14  15
ATOM     15  O   UNL     1      52.631  20.327  21.023  0.00  0.00    -0.545 OA
ATOM     16  H   UNL     1      52.449  20.949  21.740  0.00  0.00    +0.371 HD
ENDBRANCH  14  15
BRANCH  18  19
ATOM     19  O   UNL     1      53.295  19.962  18.539  0.00  0.00    -0.548 OA
ATOM     20  H   UNL     1      54.169  19.556  18.452  0.00  0.00    +0.367 HD
ENDBRANCH  18  19
TORSDOF 10
ENDMDL
MODEL 7
REMARK VINA RESULT:      -5.7      3.507      7.255
REMARK  Name = ZINC95486247
REMARK  18 active torsions:
REMARK  status: ('A' for Active; 'I' for Inactive)
REMARK    1  A    between atoms: C1_1  and  C2_2
REMARK    2  A    between atoms: C2_2  and  C3_4
REMARK    3  A    between atoms: C2_2  and  C10_14
REMARK    4  A    between atoms: C3_4  and  C4_5
REMARK    5  A    between atoms: C4_5  and  C5_6
REMARK    6  A    between atoms: C5_6  and  O3_13
REMARK    7  A    between atoms: C6_7  and  C7_8
REMARK    8  A    between atoms: C6_7  and  O2_12
REMARK    9  A    between atoms: C7_8  and  C8_9
REMARK   10  A    between atoms: C7_8  and  C9_10
REMARK   11  A    between atoms: C7_8  and  O1_11
REMARK   12  A    between atoms: C13_18  and  C31_41
REMARK   13  A    between atoms: C14_19  and  C30_40
REMARK   14  A    between atoms: C22_28  and  C29_39
REMARK   15  A    between atoms: C23_29  and  O5_38
REMARK   16  A    between atoms: C25_32  and  O4_37
REMARK   17  A    between atoms: C26_34  and  C27_35
REMARK   18  A    between atoms: C26_34  and  C28_36
REMARK                            x       y       z     vdW  Elec       q    Type
REMARK                         _______ _______ _______ _____ _____    ______ ____
ROOT
ATOM      3  C   UNL     1      46.906  16.937  19.523  0.00  0.00    +0.002 C 
ATOM      4  C   UNL     1      47.161  16.389  20.951  0.00  0.00    +0.011 C 
ATOM      5  C   UNL     1      47.543  14.889  20.782  0.00  0.00    +0.021 C 
ATOM      6  C   UNL     1      46.896  14.544  19.428  0.00  0.00    -0.019 C 
ATOM      7  C   UNL     1      45.377  14.435  19.586  0.00  0.00    +0.039 C 
ATOM      8  C   UNL     1      47.441  13.338  18.735  0.00  0.00    -0.064 C 
ATOM      9  C   UNL     1      47.961  12.319  19.385  0.00  0.00    -0.033 C 
ATOM     10  C   UNL     1      48.488  11.084  18.721  0.00  0.00    +0.059 C 
ATOM     11  C   UNL     1      48.804  11.283  17.240  0.00  0.00    +0.025 C 
ATOM     12  C   UNL     1      47.673  12.027  16.544  0.00  0.00    +0.004 C 
ATOM     13  C   UNL     1      46.404  11.146  16.559  0.00  0.00    +0.040 C 
ATOM     14  C   UNL     1      48.029  12.303  15.082  0.00  0.00    +0.173 C 
ATOM     17  C   UNL     1      49.332  13.092  15.014  0.00  0.00    -0.038 C 
ATOM     18  C   UNL     1      50.475  12.265  15.586  0.00  0.00    +0.171 C 
ATOM     21  C   UNL     1      50.202  11.814  17.018  0.00  0.00    -0.033 C 
ATOM     22  C   UNL     1      50.549  12.957  17.975  0.00  0.00    +0.027 C 
ATOM     23  C   UNL     1      51.199  10.663  17.311  0.00  0.00    +0.025 C 
ATOM     24  C   UNL     1      47.360  13.321  17.253  0.00  0.00    -0.061 C 
ATOM     25  C   UNL     1      47.009  14.405  16.583  0.00  0.00    -0.053 C 
ATOM     26  C   UNL     1      46.653  15.720  17.241  0.00  0.00    +0.073 C 
ATOM     27  C   UNL     1      47.313  15.789  18.595  0.00  0.00    -0.043 C 
ATOM     28  C   UNL     1      48.833  15.846  18.412  0.00  0.00    +0.028 C 
ENDROOT
BRANCH   3   2
ATOM      1  C   UNL     1      46.931  19.303  18.722  0.00  0.00    +0.013 C 
ATOM      2  C   UNL     1      47.789  18.157  19.261  0.00  0.00    -0.007 C 
BRANCH   2  29
ATOM     29  C   UNL     1      48.458  18.593  20.567  0.00  0.00    +0.021 C 
BRANCH  29  30
ATOM     30  C   UNL     1      49.440  19.731  20.283  0.00  0.00    +0.108 C 
BRANCH  30  31
ATOM     31  C   UNL     1      50.483  19.263  19.302  0.00  0.00    +0.052 C 
ATOM     34  C   UNL     1      50.738  19.975  18.220  0.00  0.00    -0.083 C 
BRANCH  34  37
ATOM     37  C   UNL     1      51.785  19.510  17.241  0.00  0.00    +0.143 C 
ATOM     40  C   UNL     1      52.042  20.609  16.208  0.00  0.00    +0.029 C 
ATOM     41  C   UNL     1      51.295  18.248  16.530  0.00  0.00    +0.074 C 
BRANCH  37  38
ATOM     38  O   UNL     1      52.998  19.222  17.941  0.00  0.00    -0.548 OA
ATOM     39  H   UNL     1      53.792  19.559  17.507  0.00  0.00    +0.380 HD
ENDBRANCH  37  38
ENDBRANCH  34  37
BRANCH  31  32
ATOM     32  O   UNL     1      51.162  18.106  19.531  0.00  0.00    -0.485 OA
ATOM     33  H   UNL     1      50.899  17.376  18.954  0.00  0.00    +0.387 HD
ENDBRANCH  31  32
BRANCH  34  35
ATOM     35  O   UNL     1      50.056  21.128  17.988  0.00  0.00    -0.469 OA
ATOM     36  H   UNL     1      50.501  21.922  18.314  0.00  0.00    +0.387 HD
ENDBRANCH  34  35
ENDBRANCH  30  31
ENDBRANCH  29  30
ENDBRANCH   2  29
ENDBRANCH   3   2
BRANCH  14  15
ATOM     15  O   UNL     1      48.164  11.063  14.382  0.00  0.00    -0.545 OA
ATOM     16  H   UNL     1      48.356  11.162  13.440  0.00  0.00    +0.371 HD
ENDBRANCH  14  15
BRANCH  18  19
ATOM     19  O   UNL     1      50.733  11.127  14.761  0.00  0.00    -0.548 OA
ATOM     20  H   UNL     1      50.979  10.332  15.253  0.00  0.00    +0.367 HD
ENDBRANCH  18  19
TORSDOF 10
ENDMDL
MODEL 8
REMARK VINA RESULT:      -5.6      2.826      6.195
REMARK  Name = ZINC95486247
REMARK  18 active torsions:
REMARK  status: ('A' for Active; 'I' for Inactive)
REMARK    1  A    between atoms: C1_1  and  C2_2
REMARK    2  A    between atoms: C2_2  and  C3_4
REMARK    3  A    between atoms: C2_2  and  C10_14
REMARK    4  A    between atoms: C3_4  and  C4_5
REMARK    5  A    between atoms: C4_5  and  C5_6
REMARK    6  A    between atoms: C5_6  and  O3_13
REMARK    7  A    between atoms: C6_7  and  C7_8
REMARK    8  A    between atoms: C6_7  and  O2_12
REMARK    9  A    between atoms: C7_8  and  C8_9
REMARK   10  A    between atoms: C7_8  and  C9_10
REMARK   11  A    between atoms: C7_8  and  O1_11
REMARK   12  A    between atoms: C13_18  and  C31_41
REMARK   13  A    between atoms: C14_19  and  C30_40
REMARK   14  A    between atoms: C22_28  and  C29_39
REMARK   15  A    between atoms: C23_29  and  O5_38
REMARK   16  A    between atoms: C25_32  and  O4_37
REMARK   17  A    between atoms: C26_34  and  C27_35
REMARK   18  A    between atoms: C26_34  and  C28_36
REMARK                            x       y       z     vdW  Elec       q    Type
REMARK                         _______ _______ _______ _____ _____    ______ ____
ROOT
ATOM      3  C   UNL     1      47.028  18.820  20.312  0.00  0.00    +0.002 C 
ATOM      4  C   UNL     1      47.419  18.445  21.764  0.00  0.00    +0.011 C 
ATOM      5  C   UNL     1      47.493  16.890  21.810  0.00  0.00    +0.021 C 
ATOM      6  C   UNL     1      46.577  16.491  20.639  0.00  0.00    -0.019 C 
ATOM      7  C   UNL     1      45.111  16.716  21.022  0.00  0.00    +0.039 C 
ATOM      8  C   UNL     1      46.773  15.112  20.100  0.00  0.00    -0.064 C 
ATOM      9  C   UNL     1      47.206  14.114  20.840  0.00  0.00    -0.033 C 
ATOM     10  C   UNL     1      47.385  12.714  20.337  0.00  0.00    +0.059 C 
ATOM     11  C   UNL     1      47.477  12.628  18.815  0.00  0.00    +0.025 C 
ATOM     12  C   UNL     1      46.395  13.477  18.161  0.00  0.00    +0.004 C 
ATOM     13  C   UNL     1      45.011  12.884  18.506  0.00  0.00    +0.040 C 
ATOM     14  C   UNL     1      46.542  13.459  16.639  0.00  0.00    +0.173 C 
ATOM     17  C   UNL     1      47.935  13.949  16.255  0.00  0.00    -0.038 C 
ATOM     18  C   UNL     1      48.992  12.999  16.800  0.00  0.00    +0.171 C 
ATOM     21  C   UNL     1      48.889  12.826  18.313  0.00  0.00    -0.033 C 
ATOM     22  C   UNL     1      49.591  14.001  18.998  0.00  0.00    +0.027 C 
ATOM     23  C   UNL     1      49.701  11.552  18.663  0.00  0.00    +0.025 C 
ATOM     24  C   UNL     1      46.442  14.897  18.669  0.00  0.00    -0.061 C 
ATOM     25  C   UNL     1      46.181  15.920  17.874  0.00  0.00    -0.053 C 
ATOM     26  C   UNL     1      46.181  17.362  18.334  0.00  0.00    +0.073 C 
ATOM     27  C   UNL     1      47.062  17.491  19.552  0.00  0.00    -0.043 C 
ATOM     28  C   UNL     1      48.515  17.211  19.154  0.00  0.00    +0.028 C 
ENDROOT
BRANCH   3   2
ATOM      1  C   UNL     1      47.338  20.983  19.099  0.00  0.00    +0.013 C 
ATOM      2  C   UNL     1      48.057  19.785  19.720  0.00  0.00    -0.007 C 
BRANCH   2  29
ATOM     29  C   UNL     1      48.994  20.272  20.828  0.00  0.00    +0.021 C 
BRANCH  29  30
ATOM     30  C   UNL     1      50.211  20.957  20.203  0.00  0.00    +0.108 C 
BRANCH  30  31
ATOM     31  C   UNL     1      50.939  19.979  19.318  0.00  0.00    +0.052 C 
ATOM     34  C   UNL     1      51.098  20.242  18.034  0.00  0.00    -0.083 C 
BRANCH  34  37
ATOM     37  C   UNL     1      51.831  19.266  17.150  0.00  0.00    +0.143 C 
ATOM     40  C   UNL     1      52.268  19.972  15.864  0.00  0.00    +0.029 C 
ATOM     41  C   UNL     1      50.907  18.099  16.802  0.00  0.00    +0.074 C 
BRANCH  37  38
ATOM     38  O   UNL     1      52.984  18.774  17.837  0.00  0.00    -0.548 OA
ATOM     39  H   UNL     1      53.502  19.459  18.279  0.00  0.00    +0.380 HD
ENDBRANCH  37  38
ENDBRANCH  34  37
BRANCH  31  32
ATOM     32  O   UNL     1      51.433  18.824  19.842  0.00  0.00    -0.485 OA
ATOM     33  H   UNL     1      50.902  18.462  20.565  0.00  0.00    +0.387 HD
ENDBRANCH  31  32
BRANCH  34  35
ATOM     35  O   UNL     1      50.600  21.393  17.509  0.00  0.00    -0.469 OA
ATOM     36  H   UNL     1      49.939  21.826  18.065  0.00  0.00    +0.387 HD
ENDBRANCH  34  35
ENDBRANCH  30  31
ENDBRANCH  29  30
ENDBRANCH   2  29
ENDBRANCH   3   2
BRANCH  14  15
ATOM     15  O   UNL     1      46.335  12.130  16.155  0.00  0.00    -0.545 OA
ATOM     16  H   UNL     1      45.411  11.846  16.168  0.00  0.00    +0.371 HD
ENDBRANCH  14  15
BRANCH  18  19
ATOM     19  O   UNL     1      48.900  11.725  16.160  0.00  0.00    -0.548 OA
ATOM     20  H   UNL     1      47.997  11.388  16.082  0.00  0.00    +0.367 HD
ENDBRANCH  18  19
TORSDOF 10
ENDMDL
MODEL 9
REMARK VINA RESULT:      -5.6      3.832      8.667
REMARK  Name = ZINC95486247
REMARK  18 active torsions:
REMARK  status: ('A' for Active; 'I' for Inactive)
REMARK    1  A    between atoms: C1_1  and  C2_2
REMARK    2  A    between atoms: C2_2  and  C3_4
REMARK    3  A    between atoms: C2_2  and  C10_14
REMARK    4  A    between atoms: C3_4  and  C4_5
REMARK    5  A    between atoms: C4_5  and  C5_6
REMARK    6  A    between atoms: C5_6  and  O3_13
REMARK    7  A    between atoms: C6_7  and  C7_8
REMARK    8  A    between atoms: C6_7  and  O2_12
REMARK    9  A    between atoms: C7_8  and  C8_9
REMARK   10  A    between atoms: C7_8  and  C9_10
REMARK   11  A    between atoms: C7_8  and  O1_11
REMARK   12  A    between atoms: C13_18  and  C31_41
REMARK   13  A    between atoms: C14_19  and  C30_40
REMARK   14  A    between atoms: C22_28  and  C29_39
REMARK   15  A    between atoms: C23_29  and  O5_38
REMARK   16  A    between atoms: C25_32  and  O4_37
REMARK   17  A    between atoms: C26_34  and  C27_35
REMARK   18  A    between atoms: C26_34  and  C28_36
REMARK                            x       y       z     vdW  Elec       q    Type
REMARK                         _______ _______ _______ _____ _____    ______ ____
ROOT
ATOM      3  C   UNL     1      46.312  15.648  18.759  0.00  0.00    +0.002 C 
ATOM      4  C   UNL     1      46.435  15.035  20.179  0.00  0.00    +0.011 C 
ATOM      5  C   UNL     1      47.247  13.717  20.017  0.00  0.00    +0.021 C 
ATOM      6  C   UNL     1      46.994  13.363  18.540  0.00  0.00    -0.019 C 
ATOM      7  C   UNL     1      45.565  12.839  18.366  0.00  0.00    +0.039 C 
ATOM      8  C   UNL     1      47.976  12.426  17.917  0.00  0.00    -0.064 C 
ATOM      9  C   UNL     1      48.628  11.516  18.609  0.00  0.00    -0.033 C 
ATOM     10  C   UNL     1      49.597  10.544  18.008  0.00  0.00    +0.059 C 
ATOM     11  C   UNL     1      50.120  10.979  16.641  0.00  0.00    +0.025 C 
ATOM     12  C   UNL     1      48.979  11.469  15.760  0.00  0.00    +0.004 C 
ATOM     13  C   UNL     1      48.029  10.288  15.460  0.00  0.00    +0.040 C 
ATOM     14  C   UNL     1      49.514  11.986  14.423  0.00  0.00    +0.173 C 
ATOM     17  C   UNL     1      50.531  13.094  14.675  0.00  0.00    -0.038 C 
ATOM     18  C   UNL     1      51.730  12.541  15.433  0.00  0.00    +0.171 C 
ATOM     21  C   UNL     1      51.328  11.882  16.749  0.00  0.00    -0.033 C 
ATOM     22  C   UNL     1      51.152  12.965  17.816  0.00  0.00    +0.027 C 
ATOM     23  C   UNL     1      52.534  11.011  17.187  0.00  0.00    +0.025 C 
ATOM     24  C   UNL     1      48.186  12.549  16.453  0.00  0.00    -0.061 C 
ATOM     25  C   UNL     1      47.679  13.568  15.781  0.00  0.00    -0.053 C 
ATOM     26  C   UNL     1      46.849  14.663  16.415  0.00  0.00    +0.073 C 
ATOM     27  C   UNL     1      47.194  14.756  17.881  0.00  0.00    -0.043 C 
ATOM     28  C   UNL     1      48.643  15.233  18.028  0.00  0.00    +0.028 C 
ENDROOT
BRANCH   3   2
ATOM      1  C   UNL     1      46.225  17.857  17.595  0.00  0.00    +0.013 C 
ATOM      2  C   UNL     1      46.850  17.080  18.755  0.00  0.00    -0.007 C 
BRANCH   2  29
ATOM     29  C   UNL     1      46.493  17.763  20.077  0.00  0.00    +0.021 C 
BRANCH  29  30
ATOM     30  C   UNL     1      45.171  18.518  19.921  0.00  0.00    +0.108 C 
BRANCH  30  31
ATOM     31  C   UNL     1      45.244  19.820  20.675  0.00  0.00    +0.052 C 
ATOM     34  C   UNL     1      45.066  20.962  20.039  0.00  0.00    -0.083 C 
BRANCH  34  37
ATOM     37  C   UNL     1      45.134  22.265  20.794  0.00  0.00    +0.143 C 
ATOM     40  C   UNL     1      44.718  23.412  19.870  0.00  0.00    +0.029 C 
ATOM     41  C   UNL     1      46.564  22.498  21.283  0.00  0.00    +0.074 C 
BRANCH  37  38
ATOM     38  O   UNL     1      44.248  22.212  21.915  0.00  0.00    -0.548 OA
ATOM     39  H   UNL     1      43.488  21.630  21.788  0.00  0.00    +0.380 HD
ENDBRANCH  37  38
ENDBRANCH  34  37
BRANCH  31  32
ATOM     32  O   UNL     1      45.493  19.818  22.013  0.00  0.00    -0.485 OA
ATOM     33  H   UNL     1      44.803  20.240  22.542  0.00  0.00    +0.387 HD
ENDBRANCH  31  32
BRANCH  34  35
ATOM     35  O   UNL     1      44.823  20.965  18.701  0.00  0.00    -0.469 OA
ATOM     36  H   UNL     1      45.580  21.235  18.163  0.00  0.00    +0.387 HD
ENDBRANCH  34  35
ENDBRANCH  30  31
ENDBRANCH  29  30
ENDBRANCH   2  29
ENDBRANCH   3   2
BRANCH  14  15
ATOM     15  O   UNL     1      50.122  10.910  13.705  0.00  0.00    -0.545 OA
ATOM     16  H   UNL     1      50.396  11.141  12.808  0.00  0.00    +0.371 HD
ENDBRANCH  14  15
BRANCH  18  19
ATOM     19  O   UNL     1      52.449  11.609  14.623  0.00  0.00    -0.548 OA
ATOM     20  H   UNL     1      51.883  10.999  14.129  0.00  0.00    +0.367 HD
ENDBRANCH  18  19
TORSDOF 10
ENDMDL
