MODEL 1
REMARK VINA RESULT:      -7.1      0.000      0.000
REMARK  Name = ZINC34165799
REMARK  9 active torsions:
REMARK  status: ('A' for Active; 'I' for Inactive)
REMARK    1  A    between atoms: C1_1  and  C2_2
REMARK    2  A    between atoms: C2_2  and  C25_31
REMARK    3  A    between atoms: C3_3  and  C4_4
REMARK    4  A    between atoms: C4_4  and  C5_5
REMARK    5  A    between atoms: C8_8  and  O4_24
REMARK    6  A    between atoms: C11_12  and  C14_17
REMARK    7  A    between atoms: C17_20  and  O3_23
REMARK    8  A    between atoms: C22_27  and  C23_29
REMARK    9  A    between atoms: C22_27  and  C24_30
REMARK                            x       y       z     vdW  Elec       q    Type
REMARK                         _______ _______ _______ _____ _____    ______ ____
ROOT
ATOM      6  C   UNL     1      47.217  18.545  18.558  0.00  0.00    -0.153 A 
ATOM      7  C   UNL     1      48.575  18.352  18.747  0.00  0.00    +0.224 A 
ATOM      8  C   UNL     1      49.315  19.241  19.545  0.00  0.00    -0.204 A 
ATOM      9  C   UNL     1      50.762  18.997  19.715  0.00  0.00    +0.057 C 
ATOM     10  C   UNL     1      51.363  18.168  18.863  0.00  0.00    -0.058 C 
ATOM     11  C   UNL     1      50.569  17.521  17.759  0.00  0.00    +0.150 C 
ATOM     12  C   UNL     1      51.208  16.178  17.400  0.00  0.00    +0.085 C 
ATOM     13  C   UNL     1      50.583  18.431  16.528  0.00  0.00    +0.037 C 
ATOM     14  C   UNL     1      48.686  20.322  20.156  0.00  0.00    +0.245 A 
ATOM     17  C   UNL     1      47.308  20.510  19.962  0.00  0.00    -0.306 A 
ATOM     18  C   UNL     1      46.613  21.634  20.599  0.00  0.00    +0.401 C 
ATOM     19  O   UNL     1      47.137  22.296  21.471  0.00  0.00    -0.428 OA
ATOM     20  C   UNL     1      45.208  21.933  20.100  0.00  0.00    +0.038 C 
ATOM     21  C   UNL     1      44.512  20.581  19.888  0.00  0.00    +0.236 C 
ATOM     30  O   UNL     1      45.252  19.810  18.942  0.00  0.00    -0.290 OA
ATOM     31  O   UNL     1      49.219  17.306  18.169  0.00  0.00    -0.291 OA
ATOM     32  C   UNL     1      46.576  19.621  19.150  0.00  0.00    +0.232 A 
ENDROOT
BRANCH  21  22
ATOM     22  C   UNL     1      43.115  20.811  19.367  0.00  0.00    -0.101 A 
ATOM     23  C   UNL     1      42.293  19.733  19.097  0.00  0.00    +0.062 A 
ATOM     24  C   UNL     1      41.014  19.942  18.620  0.00  0.00    -0.013 A 
ATOM     25  C   UNL     1      40.554  21.234  18.413  0.00  0.00    +0.116 A 
ATOM     28  C   UNL     1      41.381  22.314  18.684  0.00  0.00    -0.010 A 
ATOM     29  C   UNL     1      42.657  22.100  19.167  0.00  0.00    +0.047 A 
BRANCH  25  26
ATOM     26  O   UNL     1      39.295  21.442  17.942  0.00  0.00    -0.499 OA
ATOM     27  H   UNL     1      38.823  22.158  18.388  0.00  0.00    +0.394 HD
ENDBRANCH  25  26
ENDBRANCH  21  22
BRANCH  14  15
ATOM     15  O   UNL     1      49.394  21.184  20.927  0.00  0.00    -0.472 OA
ATOM     16  H   UNL     1      50.325  20.944  21.030  0.00  0.00    +0.400 HD
ENDBRANCH  14  15
BRANCH   6   5
ATOM      5  C   UNL     1      46.435  17.586  17.698  0.00  0.00    +0.136 C 
BRANCH   5   4
ATOM      1  C   UNL     1      47.073  14.950  16.925  0.00  0.00    +0.073 C 
ATOM      2  C   UNL     1      46.220  15.196  18.143  0.00  0.00    -0.127 C 
ATOM      3  C   UNL     1      45.651  14.031  18.912  0.00  0.00    +0.070 C 
ATOM      4  C   UNL     1      45.974  16.422  18.535  0.00  0.00    -0.051 C 
ENDBRANCH   5   4
ENDBRANCH   6   5
TORSDOF 5
ENDMDL
MODEL 2
REMARK VINA RESULT:      -6.8      2.149      7.066
REMARK  Name = ZINC34165799
REMARK  9 active torsions:
REMARK  status: ('A' for Active; 'I' for Inactive)
REMARK    1  A    between atoms: C1_1  and  C2_2
REMARK    2  A    between atoms: C2_2  and  C25_31
REMARK    3  A    between atoms: C3_3  and  C4_4
REMARK    4  A    between atoms: C4_4  and  C5_5
REMARK    5  A    between atoms: C8_8  and  O4_24
REMARK    6  A    between atoms: C11_12  and  C14_17
REMARK    7  A    between atoms: C17_20  and  O3_23
REMARK    8  A    between atoms: C22_27  and  C23_29
REMARK    9  A    between atoms: C22_27  and  C24_30
REMARK                            x       y       z     vdW  Elec       q    Type
REMARK                         _______ _______ _______ _____ _____    ______ ____
ROOT
ATOM      6  C   UNL     1      45.118  19.903  19.193  0.00  0.00    -0.153 A 
ATOM      7  C   UNL     1      43.888  20.515  19.017  0.00  0.00    +0.224 A 
ATOM      8  C   UNL     1      43.633  21.773  19.590  0.00  0.00    -0.204 A 
ATOM      9  C   UNL     1      42.305  22.386  19.380  0.00  0.00    +0.057 C 
ATOM     10  C   UNL     1      41.314  21.604  18.956  0.00  0.00    -0.058 C 
ATOM     11  C   UNL     1      41.562  20.138  18.717  0.00  0.00    +0.150 C 
ATOM     12  C   UNL     1      40.604  19.634  17.636  0.00  0.00    +0.085 C 
ATOM     13  C   UNL     1      41.310  19.366  20.014  0.00  0.00    +0.037 C 
ATOM     14  C   UNL     1      44.617  22.415  20.336  0.00  0.00    +0.245 A 
ATOM     17  C   UNL     1      45.863  21.790  20.507  0.00  0.00    -0.306 A 
ATOM     18  C   UNL     1      46.925  22.444  21.279  0.00  0.00    +0.401 C 
ATOM     19  O   UNL     1      46.852  23.611  21.602  0.00  0.00    -0.428 OA
ATOM     20  C   UNL     1      48.114  21.579  21.663  0.00  0.00    +0.038 C 
ATOM     21  C   UNL     1      48.438  20.697  20.448  0.00  0.00    +0.236 C 
ATOM     30  O   UNL     1      47.298  19.905  20.120  0.00  0.00    -0.290 OA
ATOM     31  O   UNL     1      42.908  19.919  18.293  0.00  0.00    -0.291 OA
ATOM     32  C   UNL     1      46.107  20.523  19.940  0.00  0.00    +0.232 A 
ENDROOT
BRANCH  21  22
ATOM     22  C   UNL     1      49.600  19.794  20.777  0.00  0.00    -0.101 A 
ATOM     23  C   UNL     1      49.410  18.427  20.861  0.00  0.00    +0.062 A 
ATOM     24  C   UNL     1      50.473  17.599  21.163  0.00  0.00    -0.013 A 
ATOM     25  C   UNL     1      51.732  18.138  21.381  0.00  0.00    +0.116 A 
ATOM     28  C   UNL     1      51.920  19.509  21.296  0.00  0.00    -0.010 A 
ATOM     29  C   UNL     1      50.855  20.334  20.988  0.00  0.00    +0.047 A 
BRANCH  25  26
ATOM     26  O   UNL     1      52.779  17.324  21.679  0.00  0.00    -0.499 OA
ATOM     27  H   UNL     1      52.847  17.099  22.617  0.00  0.00    +0.394 HD
ENDBRANCH  25  26
ENDBRANCH  21  22
BRANCH  14  15
ATOM     15  O   UNL     1      44.377  23.628  20.891  0.00  0.00    -0.472 OA
ATOM     16  H   UNL     1      45.167  24.068  21.232  0.00  0.00    +0.400 HD
ENDBRANCH  14  15
BRANCH   6   5
ATOM      5  C   UNL     1      45.379  18.553  18.576  0.00  0.00    +0.136 C 
BRANCH   5   4
ATOM      1  C   UNL     1      46.965  16.258  18.986  0.00  0.00    +0.073 C 
ATOM      2  C   UNL     1      45.624  16.379  19.660  0.00  0.00    -0.127 C 
ATOM      3  C   UNL     1      45.097  15.245  20.501  0.00  0.00    +0.070 C 
ATOM      4  C   UNL     1      44.914  17.472  19.516  0.00  0.00    -0.051 C 
ENDBRANCH   5   4
ENDBRANCH   6   5
TORSDOF 5
ENDMDL
MODEL 3
REMARK VINA RESULT:      -6.7      2.253      4.909
REMARK  Name = ZINC34165799
REMARK  9 active torsions:
REMARK  status: ('A' for Active; 'I' for Inactive)
REMARK    1  A    between atoms: C1_1  and  C2_2
REMARK    2  A    between atoms: C2_2  and  C25_31
REMARK    3  A    between atoms: C3_3  and  C4_4
REMARK    4  A    between atoms: C4_4  and  C5_5
REMARK    5  A    between atoms: C8_8  and  O4_24
REMARK    6  A    between atoms: C11_12  and  C14_17
REMARK    7  A    between atoms: C17_20  and  O3_23
REMARK    8  A    between atoms: C22_27  and  C23_29
REMARK    9  A    between atoms: C22_27  and  C24_30
REMARK                            x       y       z     vdW  Elec       q    Type
REMARK                         _______ _______ _______ _____ _____    ______ ____
ROOT
ATOM      6  C   UNL     1      49.647  17.930  19.011  0.00  0.00    -0.153 A 
ATOM      7  C   UNL     1      50.521  16.860  18.916  0.00  0.00    +0.224 A 
ATOM      8  C   UNL     1      50.028  15.557  18.728  0.00  0.00    -0.204 A 
ATOM      9  C   UNL     1      50.997  14.445  18.635  0.00  0.00    +0.057 C 
ATOM     10  C   UNL     1      52.241  14.661  19.057  0.00  0.00    -0.058 C 
ATOM     11  C   UNL     1      52.622  16.005  19.620  0.00  0.00    +0.150 C 
ATOM     12  C   UNL     1      54.111  16.252  19.373  0.00  0.00    +0.085 C 
ATOM     13  C   UNL     1      52.352  16.015  21.127  0.00  0.00    +0.037 C 
ATOM     14  C   UNL     1      48.658  15.333  18.633  0.00  0.00    +0.245 A 
ATOM     17  C   UNL     1      47.779  16.424  18.727  0.00  0.00    -0.306 A 
ATOM     18  C   UNL     1      46.329  16.224  18.622  0.00  0.00    +0.401 C 
ATOM     19  O   UNL     1      45.857  15.175  18.236  0.00  0.00    -0.428 OA
ATOM     20  C   UNL     1      45.452  17.396  19.032  0.00  0.00    +0.038 C 
ATOM     21  C   UNL     1      46.123  18.668  18.495  0.00  0.00    +0.236 C 
ATOM     30  O   UNL     1      47.436  18.779  19.043  0.00  0.00    -0.290 OA
ATOM     31  O   UNL     1      51.862  17.043  19.000  0.00  0.00    -0.291 OA
ATOM     32  C   UNL     1      48.280  17.726  18.928  0.00  0.00    +0.232 A 
ENDROOT
BRANCH  21  22
ATOM     22  C   UNL     1      45.308  19.873  18.893  0.00  0.00    -0.101 A 
ATOM     23  C   UNL     1      45.908  21.116  18.972  0.00  0.00    +0.062 A 
ATOM     24  C   UNL     1      45.164  22.221  19.336  0.00  0.00    -0.013 A 
ATOM     25  C   UNL     1      43.814  22.083  19.622  0.00  0.00    +0.116 A 
ATOM     28  C   UNL     1      43.214  20.835  19.542  0.00  0.00    -0.010 A 
ATOM     29  C   UNL     1      43.961  19.734  19.172  0.00  0.00    +0.047 A 
BRANCH  25  26
ATOM     26  O   UNL     1      43.079  23.169  19.982  0.00  0.00    -0.499 OA
ATOM     27  H   UNL     1      42.174  23.161  19.642  0.00  0.00    +0.394 HD
ENDBRANCH  25  26
ENDBRANCH  21  22
BRANCH  14  15
ATOM     15  O   UNL     1      48.177  14.079  18.452  0.00  0.00    -0.472 OA
ATOM     16  H   UNL     1      47.854  13.661  19.261  0.00  0.00    +0.400 HD
ENDBRANCH  14  15
BRANCH   6   5
ATOM      5  C   UNL     1      50.187  19.323  19.215  0.00  0.00    +0.136 C 
BRANCH   5   4
ATOM      1  C   UNL     1      52.690  20.350  18.419  0.00  0.00    +0.073 C 
ATOM      2  C   UNL     1      51.482  20.534  17.537  0.00  0.00    -0.127 C 
ATOM      3  C   UNL     1      51.595  21.326  16.260  0.00  0.00    +0.070 C 
ATOM      4  C   UNL     1      50.333  20.006  17.880  0.00  0.00    -0.051 C 
ENDBRANCH   5   4
ENDBRANCH   6   5
TORSDOF 5
ENDMDL
MODEL 4
REMARK VINA RESULT:      -6.5      2.563      5.037
REMARK  Name = ZINC34165799
REMARK  9 active torsions:
REMARK  status: ('A' for Active; 'I' for Inactive)
REMARK    1  A    between atoms: C1_1  and  C2_2
REMARK    2  A    between atoms: C2_2  and  C25_31
REMARK    3  A    between atoms: C3_3  and  C4_4
REMARK    4  A    between atoms: C4_4  and  C5_5
REMARK    5  A    between atoms: C8_8  and  O4_24
REMARK    6  A    between atoms: C11_12  and  C14_17
REMARK    7  A    between atoms: C17_20  and  O3_23
REMARK    8  A    between atoms: C22_27  and  C23_29
REMARK    9  A    between atoms: C22_27  and  C24_30
REMARK                            x       y       z     vdW  Elec       q    Type
REMARK                         _______ _______ _______ _____ _____    ______ ____
ROOT
ATOM      6  C   UNL     1      46.088  16.623  18.305  0.00  0.00    -0.153 A 
ATOM      7  C   UNL     1      46.220  15.262  18.089  0.00  0.00    +0.224 A 
ATOM      8  C   UNL     1      45.758  14.343  19.046  0.00  0.00    -0.204 A 
ATOM      9  C   UNL     1      45.924  12.899  18.775  0.00  0.00    +0.057 C 
ATOM     10  C   UNL     1      46.780  12.536  17.822  0.00  0.00    -0.058 C 
ATOM     11  C   UNL     1      47.554  13.583  17.066  0.00  0.00    +0.150 C 
ATOM     12  C   UNL     1      47.877  13.059  15.665  0.00  0.00    +0.085 C 
ATOM     13  C   UNL     1      48.859  13.878  17.808  0.00  0.00    +0.037 C 
ATOM     14  C   UNL     1      45.161  14.794  20.220  0.00  0.00    +0.245 A 
ATOM     17  C   UNL     1      45.028  16.176  20.430  0.00  0.00    -0.306 A 
ATOM     18  C   UNL     1      44.394  16.686  21.651  0.00  0.00    +0.401 C 
ATOM     19  O   UNL     1      43.778  15.958  22.401  0.00  0.00    -0.428 OA
ATOM     20  C   UNL     1      44.562  18.170  21.933  0.00  0.00    +0.038 C 
ATOM     21  C   UNL     1      44.410  18.901  20.591  0.00  0.00    +0.236 C 
ATOM     30  O   UNL     1      45.399  18.425  19.679  0.00  0.00    -0.290 OA
ATOM     31  O   UNL     1      46.794  14.787  16.955  0.00  0.00    -0.291 OA
ATOM     32  C   UNL     1      45.504  17.092  19.471  0.00  0.00    +0.232 A 
ENDROOT
BRANCH  21  22
ATOM     22  C   UNL     1      44.592  20.383  20.802  0.00  0.00    -0.101 A 
ATOM     23  C   UNL     1      44.428  21.256  19.743  0.00  0.00    +0.062 A 
ATOM     24  C   UNL     1      44.594  22.614  19.934  0.00  0.00    -0.013 A 
ATOM     25  C   UNL     1      44.924  23.101  21.190  0.00  0.00    +0.116 A 
ATOM     28  C   UNL     1      45.088  22.223  22.251  0.00  0.00    -0.010 A 
ATOM     29  C   UNL     1      44.915  20.867  22.057  0.00  0.00    +0.047 A 
BRANCH  25  26
ATOM     26  O   UNL     1      45.089  24.437  21.381  0.00  0.00    -0.499 OA
ATOM     27  H   UNL     1      45.995  24.745  21.240  0.00  0.00    +0.394 HD
ENDBRANCH  25  26
ENDBRANCH  21  22
BRANCH  14  15
ATOM     15  O   UNL     1      44.714  13.913  21.147  0.00  0.00    -0.472 OA
ATOM     16  H   UNL     1      44.107  14.297  21.794  0.00  0.00    +0.400 HD
ENDBRANCH  14  15
BRANCH   6   5
ATOM      5  C   UNL     1      46.589  17.599  17.272  0.00  0.00    +0.136 C 
BRANCH   5   4
ATOM      1  C   UNL     1      48.591  18.932  18.744  0.00  0.00    +0.073 C 
ATOM      2  C   UNL     1      48.971  17.991  17.630  0.00  0.00    -0.127 C 
ATOM      3  C   UNL     1      50.421  17.812  17.257  0.00  0.00    +0.070 C 
ATOM      4  C   UNL     1      48.043  17.327  16.986  0.00  0.00    -0.051 C 
ENDBRANCH   5   4
ENDBRANCH   6   5
TORSDOF 5
ENDMDL
MODEL 5
REMARK VINA RESULT:      -6.4      3.811      8.322
REMARK  Name = ZINC34165799
REMARK  9 active torsions:
REMARK  status: ('A' for Active; 'I' for Inactive)
REMARK    1  A    between atoms: C1_1  and  C2_2
REMARK    2  A    between atoms: C2_2  and  C25_31
REMARK    3  A    between atoms: C3_3  and  C4_4
REMARK    4  A    between atoms: C4_4  and  C5_5
REMARK    5  A    between atoms: C8_8  and  O4_24
REMARK    6  A    between atoms: C11_12  and  C14_17
REMARK    7  A    between atoms: C17_20  and  O3_23
REMARK    8  A    between atoms: C22_27  and  C23_29
REMARK    9  A    between atoms: C22_27  and  C24_30
REMARK                            x       y       z     vdW  Elec       q    Type
REMARK                         _______ _______ _______ _____ _____    ______ ____
ROOT
ATOM      6  C   UNL     1      49.839  17.013  18.543  0.00  0.00    -0.153 A 
ATOM      7  C   UNL     1      49.261  17.846  19.486  0.00  0.00    +0.224 A 
ATOM      8  C   UNL     1      47.921  17.666  19.866  0.00  0.00    -0.204 A 
ATOM      9  C   UNL     1      47.345  18.581  20.873  0.00  0.00    +0.057 C 
ATOM     10  C   UNL     1      47.990  19.718  21.128  0.00  0.00    -0.058 C 
ATOM     11  C   UNL     1      49.261  20.043  20.389  0.00  0.00    +0.150 C 
ATOM     12  C   UNL     1      50.144  20.930  21.269  0.00  0.00    +0.085 C 
ATOM     13  C   UNL     1      48.917  20.794  19.101  0.00  0.00    +0.037 C 
ATOM     14  C   UNL     1      47.163  16.644  19.300  0.00  0.00    +0.245 A 
ATOM     17  C   UNL     1      47.757  15.802  18.346  0.00  0.00    -0.306 A 
ATOM     18  C   UNL     1      46.990  14.710  17.737  0.00  0.00    +0.401 C 
ATOM     19  O   UNL     1      45.915  14.360  18.180  0.00  0.00    -0.428 OA
ATOM     20  C   UNL     1      47.606  14.049  16.514  0.00  0.00    +0.038 C 
ATOM     21  C   UNL     1      49.110  13.910  16.790  0.00  0.00    +0.236 C 
ATOM     30  O   UNL     1      49.669  15.201  17.026  0.00  0.00    -0.290 OA
ATOM     31  O   UNL     1      49.971  18.849  20.061  0.00  0.00    -0.291 OA
ATOM     32  C   UNL     1      49.098  15.997  17.961  0.00  0.00    +0.232 A 
ENDROOT
BRANCH  21  22
ATOM     22  C   UNL     1      49.784  13.280  15.597  0.00  0.00    -0.101 A 
ATOM     23  C   UNL     1      49.026  12.850  14.524  0.00  0.00    +0.062 A 
ATOM     24  C   UNL     1      49.641  12.273  13.431  0.00  0.00    -0.013 A 
ATOM     25  C   UNL     1      51.020  12.126  13.409  0.00  0.00    +0.116 A 
ATOM     28  C   UNL     1      51.778  12.558  14.487  0.00  0.00    -0.010 A 
ATOM     29  C   UNL     1      51.159  13.140  15.576  0.00  0.00    +0.047 A 
BRANCH  25  26
ATOM     26  O   UNL     1      51.628  11.557  12.334  0.00  0.00    -0.499 OA
ATOM     27  H   UNL     1      52.164  10.781  12.551  0.00  0.00    +0.394 HD
ENDBRANCH  25  26
ENDBRANCH  21  22
BRANCH  14  15
ATOM     15  O   UNL     1      45.869  16.466  19.662  0.00  0.00    -0.472 OA
ATOM     16  H   UNL     1      45.343  17.276  19.651  0.00  0.00    +0.400 HD
ENDBRANCH  14  15
BRANCH   6   5
ATOM      5  C   UNL     1      51.277  17.217  18.141  0.00  0.00    +0.136 C 
BRANCH   5   4
ATOM      1  C   UNL     1      52.676  19.665  18.214  0.00  0.00    +0.073 C 
ATOM      2  C   UNL     1      51.938  19.253  16.967  0.00  0.00    -0.127 C 
ATOM      3  C   UNL     1      51.890  20.179  15.779  0.00  0.00    +0.070 C 
ATOM      4  C   UNL     1      51.338  18.089  16.914  0.00  0.00    -0.051 C 
ENDBRANCH   5   4
ENDBRANCH   6   5
TORSDOF 5
ENDMDL
MODEL 6
REMARK VINA RESULT:      -6.3      4.159      7.977
REMARK  Name = ZINC34165799
REMARK  9 active torsions:
REMARK  status: ('A' for Active; 'I' for Inactive)
REMARK    1  A    between atoms: C1_1  and  C2_2
REMARK    2  A    between atoms: C2_2  and  C25_31
REMARK    3  A    between atoms: C3_3  and  C4_4
REMARK    4  A    between atoms: C4_4  and  C5_5
REMARK    5  A    between atoms: C8_8  and  O4_24
REMARK    6  A    between atoms: C11_12  and  C14_17
REMARK    7  A    between atoms: C17_20  and  O3_23
REMARK    8  A    between atoms: C22_27  and  C23_29
REMARK    9  A    between atoms: C22_27  and  C24_30
REMARK                            x       y       z     vdW  Elec       q    Type
REMARK                         _______ _______ _______ _____ _____    ______ ____
ROOT
ATOM      6  C   UNL     1      48.101  14.484  16.999  0.00  0.00    -0.153 A 
ATOM      7  C   UNL     1      47.772  13.149  17.163  0.00  0.00    +0.224 A 
ATOM      8  C   UNL     1      48.733  12.232  17.621  0.00  0.00    -0.204 A 
ATOM      9  C   UNL     1      48.338  10.816  17.777  0.00  0.00    +0.057 C 
ATOM     10  C   UNL     1      47.222  10.408  17.176  0.00  0.00    -0.058 C 
ATOM     11  C   UNL     1      46.411  11.377  16.357  0.00  0.00    +0.150 C 
ATOM     12  C   UNL     1      44.942  10.948  16.376  0.00  0.00    +0.085 C 
ATOM     13  C   UNL     1      46.920  11.367  14.914  0.00  0.00    +0.037 C 
ATOM     14  C   UNL     1      50.023  12.660  17.919  0.00  0.00    +0.245 A 
ATOM     17  C   UNL     1      50.348  14.016  17.754  0.00  0.00    -0.306 A 
ATOM     18  C   UNL     1      51.697  14.502  18.068  0.00  0.00    +0.401 C 
ATOM     19  O   UNL     1      52.495  13.820  18.675  0.00  0.00    -0.428 OA
ATOM     20  C   UNL     1      52.044  15.899  17.580  0.00  0.00    +0.038 C 
ATOM     21  C   UNL     1      50.805  16.776  17.815  0.00  0.00    +0.236 C 
ATOM     30  O   UNL     1      49.697  16.231  17.099  0.00  0.00    -0.290 OA
ATOM     31  O   UNL     1      46.522  12.698  16.886  0.00  0.00    -0.291 OA
ATOM     32  C   UNL     1      49.383  14.927  17.282  0.00  0.00    +0.232 A 
ENDROOT
BRANCH  21  22
ATOM     22  C   UNL     1      51.080  18.176  17.326  0.00  0.00    -0.101 A 
ATOM     23  C   UNL     1      50.726  19.261  18.106  0.00  0.00    +0.062 A 
ATOM     24  C   UNL     1      50.977  20.544  17.660  0.00  0.00    -0.013 A 
ATOM     25  C   UNL     1      51.585  20.743  16.430  0.00  0.00    +0.116 A 
ATOM     28  C   UNL     1      51.939  19.653  15.649  0.00  0.00    -0.010 A 
ATOM     29  C   UNL     1      51.692  18.372  16.102  0.00  0.00    +0.047 A 
BRANCH  25  26
ATOM     26  O   UNL     1      51.832  22.005  15.989  0.00  0.00    -0.499 OA
ATOM     27  H   UNL     1      51.309  22.686  16.433  0.00  0.00    +0.394 HD
ENDBRANCH  25  26
ENDBRANCH  21  22
BRANCH  14  15
ATOM     15  O   UNL     1      50.954  11.780  18.362  0.00  0.00    -0.472 OA
ATOM     16  H   UNL     1      50.767  10.860  18.131  0.00  0.00    +0.400 HD
ENDBRANCH  14  15
BRANCH   6   5
ATOM      5  C   UNL     1      47.063  15.458  16.505  0.00  0.00    +0.136 C 
BRANCH   5   4
ATOM      1  C   UNL     1      46.884  18.143  17.347  0.00  0.00    +0.073 C 
ATOM      2  C   UNL     1      46.107  17.071  18.067  0.00  0.00    -0.127 C 
ATOM      3  C   UNL     1      45.286  17.423  19.281  0.00  0.00    +0.070 C 
ATOM      4  C   UNL     1      46.145  15.833  17.639  0.00  0.00    -0.051 C 
ENDBRANCH   5   4
ENDBRANCH   6   5
TORSDOF 5
ENDMDL
MODEL 7
REMARK VINA RESULT:      -6.2      3.943      7.334
REMARK  Name = ZINC34165799
REMARK  9 active torsions:
REMARK  status: ('A' for Active; 'I' for Inactive)
REMARK    1  A    between atoms: C1_1  and  C2_2
REMARK    2  A    between atoms: C2_2  and  C25_31
REMARK    3  A    between atoms: C3_3  and  C4_4
REMARK    4  A    between atoms: C4_4  and  C5_5
REMARK    5  A    between atoms: C8_8  and  O4_24
REMARK    6  A    between atoms: C11_12  and  C14_17
REMARK    7  A    between atoms: C17_20  and  O3_23
REMARK    8  A    between atoms: C22_27  and  C23_29
REMARK    9  A    between atoms: C22_27  and  C24_30
REMARK                            x       y       z     vdW  Elec       q    Type
REMARK                         _______ _______ _______ _____ _____    ______ ____
ROOT
ATOM      6  C   UNL     1      48.799  14.832  17.197  0.00  0.00    -0.153 A 
ATOM      7  C   UNL     1      47.867  13.810  17.134  0.00  0.00    +0.224 A 
ATOM      8  C   UNL     1      46.640  13.927  17.809  0.00  0.00    -0.204 A 
ATOM      9  C   UNL     1      45.676  12.810  17.717  0.00  0.00    +0.057 C 
ATOM     10  C   UNL     1      46.124  11.630  17.292  0.00  0.00    -0.058 C 
ATOM     11  C   UNL     1      47.577  11.461  16.935  0.00  0.00    +0.150 C 
ATOM     12  C   UNL     1      47.712  10.366  15.875  0.00  0.00    +0.085 C 
ATOM     13  C   UNL     1      48.360  11.052  18.185  0.00  0.00    +0.037 C 
ATOM     14  C   UNL     1      46.351  15.073  18.544  0.00  0.00    +0.245 A 
ATOM     17  C   UNL     1      47.300  16.106  18.600  0.00  0.00    -0.306 A 
ATOM     18  C   UNL     1      47.024  17.331  19.358  0.00  0.00    +0.401 C 
ATOM     19  O   UNL     1      45.911  17.590  19.768  0.00  0.00    -0.428 OA
ATOM     20  C   UNL     1      48.206  18.252  19.613  0.00  0.00    +0.038 C 
ATOM     21  C   UNL     1      49.036  18.283  18.321  0.00  0.00    +0.236 C 
ATOM     30  O   UNL     1      49.461  16.960  18.000  0.00  0.00    -0.290 OA
ATOM     31  O   UNL     1      48.114  12.681  16.423  0.00  0.00    -0.291 OA
ATOM     32  C   UNL     1      48.533  15.977  17.931  0.00  0.00    +0.232 A 
ENDROOT
BRANCH  21  22
ATOM     22  C   UNL     1      50.242  19.165  18.520  0.00  0.00    -0.101 A 
ATOM     23  C   UNL     1      51.486  18.742  18.088  0.00  0.00    +0.062 A 
ATOM     24  C   UNL     1      52.592  19.549  18.269  0.00  0.00    -0.013 A 
ATOM     25  C   UNL     1      52.455  20.784  18.884  0.00  0.00    +0.116 A 
ATOM     28  C   UNL     1      51.207  21.207  19.316  0.00  0.00    -0.010 A 
ATOM     29  C   UNL     1      50.102  20.399  19.128  0.00  0.00    +0.047 A 
BRANCH  25  26
ATOM     26  O   UNL     1      53.543  21.580  19.064  0.00  0.00    -0.499 OA
ATOM     27  H   UNL     1      54.186  21.535  18.343  0.00  0.00    +0.394 HD
ENDBRANCH  25  26
ENDBRANCH  21  22
BRANCH  14  15
ATOM     15  O   UNL     1      45.169  15.191  19.197  0.00  0.00    -0.472 OA
ATOM     16  H   UNL     1      44.914  14.401  19.693  0.00  0.00    +0.400 HD
ENDBRANCH  14  15
BRANCH   6   5
ATOM      5  C   UNL     1      50.112  14.695  16.470  0.00  0.00    +0.136 C 
BRANCH   5   4
ATOM      1  C   UNL     1      51.465  12.552  15.232  0.00  0.00    +0.073 C 
ATOM      2  C   UNL     1      51.626  12.794  16.711  0.00  0.00    -0.127 C 
ATOM      3  C   UNL     1      52.456  11.852  17.544  0.00  0.00    +0.070 C 
ATOM      4  C   UNL     1      51.043  13.825  17.274  0.00  0.00    -0.051 C 
ENDBRANCH   5   4
ENDBRANCH   6   5
TORSDOF 5
ENDMDL
MODEL 8
REMARK VINA RESULT:      -6.2      2.194      2.910
REMARK  Name = ZINC34165799
REMARK  9 active torsions:
REMARK  status: ('A' for Active; 'I' for Inactive)
REMARK    1  A    between atoms: C1_1  and  C2_2
REMARK    2  A    between atoms: C2_2  and  C25_31
REMARK    3  A    between atoms: C3_3  and  C4_4
REMARK    4  A    between atoms: C4_4  and  C5_5
REMARK    5  A    between atoms: C8_8  and  O4_24
REMARK    6  A    between atoms: C11_12  and  C14_17
REMARK    7  A    between atoms: C17_20  and  O3_23
REMARK    8  A    between atoms: C22_27  and  C23_29
REMARK    9  A    between atoms: C22_27  and  C24_30
REMARK                            x       y       z     vdW  Elec       q    Type
REMARK                         _______ _______ _______ _____ _____    ______ ____
ROOT
ATOM      6  C   UNL     1      46.826  17.141  20.568  0.00  0.00    -0.153 A 
ATOM      7  C   UNL     1      48.048  16.514  20.741  0.00  0.00    +0.224 A 
ATOM      8  C   UNL     1      49.240  17.175  20.398  0.00  0.00    -0.204 A 
ATOM      9  C   UNL     1      50.521  16.466  20.596  0.00  0.00    +0.057 C 
ATOM     10  C   UNL     1      50.486  15.145  20.767  0.00  0.00    -0.058 C 
ATOM     11  C   UNL     1      49.167  14.419  20.744  0.00  0.00    +0.150 C 
ATOM     12  C   UNL     1      49.267  13.164  21.613  0.00  0.00    +0.085 C 
ATOM     13  C   UNL     1      48.842  14.011  19.305  0.00  0.00    +0.037 C 
ATOM     14  C   UNL     1      49.200  18.469  19.885  0.00  0.00    +0.245 A 
ATOM     17  C   UNL     1      47.957  19.099  19.716  0.00  0.00    -0.306 A 
ATOM     18  C   UNL     1      47.881  20.465  19.187  0.00  0.00    +0.401 C 
ATOM     19  O   UNL     1      48.866  21.166  19.087  0.00  0.00    -0.428 OA
ATOM     20  C   UNL     1      46.506  20.950  18.758  0.00  0.00    +0.038 C 
ATOM     21  C   UNL     1      45.505  20.444  19.807  0.00  0.00    +0.236 C 
ATOM     30  O   UNL     1      45.564  19.020  19.869  0.00  0.00    -0.290 OA
ATOM     31  O   UNL     1      48.123  15.256  21.242  0.00  0.00    -0.291 OA
ATOM     32  C   UNL     1      46.766  18.425  20.051  0.00  0.00    +0.232 A 
ENDROOT
BRANCH  21  22
ATOM     22  C   UNL     1      44.112  20.874  19.422  0.00  0.00    -0.101 A 
ATOM     23  C   UNL     1      43.713  22.182  19.625  0.00  0.00    +0.062 A 
ATOM     24  C   UNL     1      42.438  22.578  19.273  0.00  0.00    -0.013 A 
ATOM     25  C   UNL     1      41.557  21.663  18.715  0.00  0.00    +0.116 A 
ATOM     28  C   UNL     1      41.960  20.352  18.512  0.00  0.00    -0.010 A 
ATOM     29  C   UNL     1      43.239  19.962  18.860  0.00  0.00    +0.047 A 
BRANCH  25  26
ATOM     26  O   UNL     1      40.301  22.051  18.369  0.00  0.00    -0.499 OA
ATOM     27  H   UNL     1      39.739  22.281  19.122  0.00  0.00    +0.394 HD
ENDBRANCH  25  26
ENDBRANCH  21  22
BRANCH  14  15
ATOM     15  O   UNL     1      50.347  19.111  19.552  0.00  0.00    -0.472 OA
ATOM     16  H   UNL     1      50.210  19.999  19.196  0.00  0.00    +0.400 HD
ENDBRANCH  14  15
BRANCH   6   5
ATOM      5  C   UNL     1      45.554  16.422  20.938  0.00  0.00    +0.136 C 
BRANCH   5   4
ATOM      1  C   UNL     1      45.298  13.687  21.577  0.00  0.00    +0.073 C 
ATOM      2  C   UNL     1      45.149  14.147  20.150  0.00  0.00    -0.127 C 
ATOM      3  C   UNL     1      44.930  13.138  19.052  0.00  0.00    +0.070 C 
ATOM      4  C   UNL     1      45.210  15.424  19.863  0.00  0.00    -0.051 C 
ENDBRANCH   5   4
ENDBRANCH   6   5
TORSDOF 5
ENDMDL
MODEL 9
REMARK VINA RESULT:      -6.0      1.976      7.490
REMARK  Name = ZINC34165799
REMARK  9 active torsions:
REMARK  status: ('A' for Active; 'I' for Inactive)
REMARK    1  A    between atoms: C1_1  and  C2_2
REMARK    2  A    between atoms: C2_2  and  C25_31
REMARK    3  A    between atoms: C3_3  and  C4_4
REMARK    4  A    between atoms: C4_4  and  C5_5
REMARK    5  A    between atoms: C8_8  and  O4_24
REMARK    6  A    between atoms: C11_12  and  C14_17
REMARK    7  A    between atoms: C17_20  and  O3_23
REMARK    8  A    between atoms: C22_27  and  C23_29
REMARK    9  A    between atoms: C22_27  and  C24_30
REMARK                            x       y       z     vdW  Elec       q    Type
REMARK                         _______ _______ _______ _____ _____    ______ ____
ROOT
ATOM      6  C   UNL     1      46.986  17.845  18.102  0.00  0.00    -0.153 A 
ATOM      7  C   UNL     1      46.314  19.014  18.415  0.00  0.00    +0.224 A 
ATOM      8  C   UNL     1      47.013  20.115  18.939  0.00  0.00    -0.204 A 
ATOM      9  C   UNL     1      46.254  21.342  19.262  0.00  0.00    +0.057 C 
ATOM     10  C   UNL     1      44.929  21.250  19.363  0.00  0.00    -0.058 C 
ATOM     11  C   UNL     1      44.249  19.922  19.160  0.00  0.00    +0.150 C 
ATOM     12  C   UNL     1      42.833  20.156  18.631  0.00  0.00    +0.085 C 
ATOM     13  C   UNL     1      44.172  19.185  20.499  0.00  0.00    +0.037 C 
ATOM     14  C   UNL     1      48.388  20.040  19.143  0.00  0.00    +0.245 A 
ATOM     17  C   UNL     1      49.062  18.852  18.820  0.00  0.00    -0.306 A 
ATOM     18  C   UNL     1      50.512  18.742  19.014  0.00  0.00    +0.401 C 
ATOM     19  O   UNL     1      51.200  19.715  19.242  0.00  0.00    -0.428 OA
ATOM     20  C   UNL     1      51.104  17.345  18.926  0.00  0.00    +0.038 C 
ATOM     21  C   UNL     1      50.398  16.632  17.763  0.00  0.00    +0.236 C 
ATOM     30  O   UNL     1      48.994  16.592  18.014  0.00  0.00    -0.290 OA
ATOM     31  O   UNL     1      44.975  19.123  18.225  0.00  0.00    -0.291 OA
ATOM     32  C   UNL     1      48.353  17.747  18.307  0.00  0.00    +0.232 A 
ENDROOT
BRANCH  21  22
ATOM     22  C   UNL     1      50.928  15.225  17.641  0.00  0.00    -0.101 A 
ATOM     23  C   UNL     1      51.784  14.723  18.603  0.00  0.00    +0.062 A 
ATOM     24  C   UNL     1      52.270  13.435  18.492  0.00  0.00    -0.013 A 
ATOM     25  C   UNL     1      51.898  12.645  17.416  0.00  0.00    +0.116 A 
ATOM     28  C   UNL     1      51.038  13.149  16.452  0.00  0.00    -0.010 A 
ATOM     29  C   UNL     1      50.550  14.436  16.570  0.00  0.00    +0.047 A 
BRANCH  25  26
ATOM     26  O   UNL     1      52.376  11.377  17.304  0.00  0.00    -0.499 OA
ATOM     27  H   UNL     1      52.092  10.786  18.017  0.00  0.00    +0.394 HD
ENDBRANCH  25  26
ENDBRANCH  21  22
BRANCH  14  15
ATOM     15  O   UNL     1      49.066  21.099  19.648  0.00  0.00    -0.472 OA
ATOM     16  H   UNL     1      48.946  21.917  19.148  0.00  0.00    +0.400 HD
ENDBRANCH  14  15
BRANCH   6   5
ATOM      5  C   UNL     1      46.226  16.669  17.543  0.00  0.00    +0.136 C 
BRANCH   5   4
ATOM      1  C   UNL     1      46.719  13.896  17.400  0.00  0.00    +0.073 C 
ATOM      2  C   UNL     1      45.972  14.472  18.575  0.00  0.00    -0.127 C 
ATOM      3  C   UNL     1      45.428  13.558  19.644  0.00  0.00    +0.070 C 
ATOM      4  C   UNL     1      45.795  15.767  18.670  0.00  0.00    -0.051 C 
ENDBRANCH   5   4
ENDBRANCH   6   5
TORSDOF 5
ENDMDL
