MODEL 1
REMARK VINA RESULT:      -7.2      0.000      0.000
REMARK  Name = ZINC95485989
REMARK  13 active torsions:
REMARK  status: ('A' for Active; 'I' for Inactive)
REMARK    1  A    between atoms: C1_1  and  C2_2
REMARK    2  A    between atoms: C6_7  and  O8_51
REMARK    3  A    between atoms: C8_9  and  C33_41
REMARK    4  A    between atoms: C11_13  and  C21_27
REMARK    5  A    between atoms: C18_22  and  O3_26
REMARK    6  A    between atoms: C24_30  and  O5_40
REMARK    7  A    between atoms: C25_31  and  C27_34
REMARK    8  A    between atoms: C26_32  and  O4_33
REMARK    9  A    between atoms: C27_34  and  C28_35
REMARK   10  A    between atoms: C28_35  and  C29_36
REMARK   11  A    between atoms: C30_37  and  C31_38
REMARK   12  A    between atoms: C30_37  and  C32_39
REMARK   13  A    between atoms: C38_46  and  O7_50
REMARK                            x       y       z     vdW  Elec       q    Type
REMARK                         _______ _______ _______ _____ _____    ______ ____
ROOT
ATOM      1  C   UNL     1      52.230  19.211  16.202  0.00  0.00    +0.072 C 
ATOM      2  C   UNL     1      51.327  18.084  16.634  0.00  0.00    -0.128 C 
ATOM      3  C   UNL     1      50.382  18.367  17.486  0.00  0.00    -0.004 C 
ATOM      4  C   UNL     1      49.443  17.320  17.995  0.00  0.00    +0.097 C 
ATOM      5  C   UNL     1      48.048  17.803  18.249  0.00  0.00    -0.167 A 
ATOM      6  C   UNL     1      47.832  19.095  18.707  0.00  0.00    +0.157 A 
ATOM      9  C   UNL     1      46.548  19.546  18.955  0.00  0.00    -0.019 A 
ATOM     10  C   UNL     1      45.465  18.691  18.745  0.00  0.00    +0.027 A 
ATOM     22  C   UNL     1      45.684  17.396  18.281  0.00  0.00    +0.014 A 
ATOM     23  C   UNL     1      46.975  16.948  18.026  0.00  0.00    +0.208 A 
ATOM     24  O   UNL     1      47.130  15.687  17.546  0.00  0.00    -0.297 OA
ATOM     25  C   UNL     1      48.436  15.104  17.470  0.00  0.00    +0.367 C 
ATOM     42  O   UNL     1      48.420  14.052  16.501  0.00  0.00    -0.294 OA
ATOM     43  C   UNL     1      49.546  13.641  15.943  0.00  0.00    +0.180 A 
ATOM     44  C   UNL     1      49.527  12.437  15.242  0.00  0.00    -0.044 A 
ATOM     45  C   UNL     1      50.674  11.970  14.625  0.00  0.00    +0.152 A 
ATOM     48  C   UNL     1      51.850  12.702  14.703  0.00  0.00    -0.044 A 
ATOM     49  C   UNL     1      51.872  13.892  15.402  0.00  0.00    +0.079 A 
ATOM     50  C   UNL     1      50.728  14.361  16.025  0.00  0.00    -0.186 A 
ATOM     51  C   UNL     1      50.787  15.655  16.788  0.00  0.00    +0.058 C 
ATOM     52  C   UNL     1      49.366  16.201  16.950  0.00  0.00    -0.033 C 
ATOM     53  C   UNL     1      51.587  16.728  16.043  0.00  0.00    +0.090 C 
ENDROOT
BRANCH  10  11
ATOM     11  C   UNL     1      44.088  19.159  19.013  0.00  0.00    +0.078 A 
ATOM     12  C   UNL     1      43.333  18.788  20.072  0.00  0.00    -0.015 A 
ATOM     13  C   UNL     1      42.056  19.492  19.929  0.00  0.00    -0.138 A 
ATOM     14  C   UNL     1      40.880  19.535  20.678  0.00  0.00    +0.084 A 
ATOM     15  C   UNL     1      39.838  20.314  20.261  0.00  0.00    -0.019 A 
ATOM     16  C   UNL     1      39.943  21.065  19.094  0.00  0.00    +0.137 A 
ATOM     19  C   UNL     1      41.102  21.034  18.339  0.00  0.00    +0.003 A 
ATOM     20  C   UNL     1      42.172  20.248  18.748  0.00  0.00    +0.076 A 
ATOM     21  O   UNL     1      43.399  20.022  18.240  0.00  0.00    -0.184 OA
BRANCH  16  17
ATOM     17  O   UNL     1      38.899  21.836  18.692  0.00  0.00    -0.492 OA
ATOM     18  H   UNL     1      39.117  22.772  18.589  0.00  0.00    +0.396 HD
ENDBRANCH  16  17
ENDBRANCH  10  11
BRANCH  25  26
ATOM     26  C   UNL     1      48.870  14.585  18.816  0.00  0.00    -0.161 A 
ATOM     27  C   UNL     1      50.135  14.871  19.293  0.00  0.00    +0.063 A 
ATOM     28  C   UNL     1      50.536  14.396  20.526  0.00  0.00    -0.014 A 
ATOM     29  C   UNL     1      49.668  13.629  21.291  0.00  0.00    +0.141 A 
ATOM     32  C   UNL     1      48.398  13.341  20.816  0.00  0.00    -0.133 A 
ATOM     39  C   UNL     1      47.996  13.824  19.580  0.00  0.00    +0.161 A 
BRANCH  29  30
ATOM     30  O   UNL     1      50.062  13.163  22.505  0.00  0.00    -0.490 OA
ATOM     31  H   UNL     1      50.252  13.856  23.151  0.00  0.00    +0.393 HD
ENDBRANCH  29  30
BRANCH  39  40
ATOM     40  O   UNL     1      46.750  13.547  19.115  0.00  0.00    -0.477 OA
ATOM     41  H   UNL     1      46.226  14.332  18.903  0.00  0.00    +0.395 HD
ENDBRANCH  39  40
BRANCH  32  33
ATOM     33  C   UNL     1      47.453  12.509  21.644  0.00  0.00    +0.089 C 
BRANCH  33  34
ATOM     34  C   UNL     1      46.369  13.410  22.240  0.00  0.00    +0.058 C 
BRANCH  34  35
ATOM     35  C   UNL     1      46.892  14.819  22.351  0.00  0.00    -0.057 C 
ATOM     36  C   UNL     1      46.162  15.824  21.935  0.00  0.00    -0.132 C 
ATOM     37  C   UNL     1      46.685  17.232  22.046  0.00  0.00    +0.072 C 
ATOM     38  C   UNL     1      44.799  15.571  21.343  0.00  0.00    +0.071 C 
ENDBRANCH  34  35
ENDBRANCH  33  34
ENDBRANCH  32  33
ENDBRANCH  25  26
BRANCH   6   7
ATOM      7  O   UNL     1      48.890  19.925  18.913  0.00  0.00    -0.484 OA
ATOM      8  H   UNL     1      49.718  19.465  19.103  0.00  0.00    +0.392 HD
ENDBRANCH   6   7
BRANCH  45  46
ATOM     46  O   UNL     1      50.648  10.794  13.944  0.00  0.00    -0.495 OA
ATOM     47  H   UNL     1      49.883  10.694  13.362  0.00  0.00    +0.396 HD
ENDBRANCH  45  46
TORSDOF 10
ENDMDL
MODEL 2
REMARK VINA RESULT:      -6.6      1.174      2.371
REMARK  Name = ZINC95485989
REMARK  13 active torsions:
REMARK  status: ('A' for Active; 'I' for Inactive)
REMARK    1  A    between atoms: C1_1  and  C2_2
REMARK    2  A    between atoms: C6_7  and  O8_51
REMARK    3  A    between atoms: C8_9  and  C33_41
REMARK    4  A    between atoms: C11_13  and  C21_27
REMARK    5  A    between atoms: C18_22  and  O3_26
REMARK    6  A    between atoms: C24_30  and  O5_40
REMARK    7  A    between atoms: C25_31  and  C27_34
REMARK    8  A    between atoms: C26_32  and  O4_33
REMARK    9  A    between atoms: C27_34  and  C28_35
REMARK   10  A    between atoms: C28_35  and  C29_36
REMARK   11  A    between atoms: C30_37  and  C31_38
REMARK   12  A    between atoms: C30_37  and  C32_39
REMARK   13  A    between atoms: C38_46  and  O7_50
REMARK                            x       y       z     vdW  Elec       q    Type
REMARK                         _______ _______ _______ _____ _____    ______ ____
ROOT
ATOM      1  C   UNL     1      52.322  19.255  15.914  0.00  0.00    +0.072 C 
ATOM      2  C   UNL     1      51.450  18.132  16.415  0.00  0.00    -0.128 C 
ATOM      3  C   UNL     1      50.525  18.434  17.282  0.00  0.00    -0.004 C 
ATOM      4  C   UNL     1      49.616  17.394  17.858  0.00  0.00    +0.097 C 
ATOM      5  C   UNL     1      48.222  17.866  18.133  0.00  0.00    -0.167 A 
ATOM      6  C   UNL     1      47.998  19.172  18.546  0.00  0.00    +0.157 A 
ATOM      9  C   UNL     1      46.714  19.613  18.814  0.00  0.00    -0.019 A 
ATOM     10  C   UNL     1      45.640  18.734  18.668  0.00  0.00    +0.027 A 
ATOM     22  C   UNL     1      45.866  17.425  18.248  0.00  0.00    +0.014 A 
ATOM     23  C   UNL     1      47.157  16.987  17.974  0.00  0.00    +0.208 A 
ATOM     24  O   UNL     1      47.318  15.710  17.538  0.00  0.00    -0.297 OA
ATOM     25  C   UNL     1      48.631  15.145  17.448  0.00  0.00    +0.367 C 
ATOM     42  O   UNL     1      48.605  14.056  16.521  0.00  0.00    -0.294 OA
ATOM     43  C   UNL     1      49.721  13.639  15.947  0.00  0.00    +0.180 A 
ATOM     44  C   UNL     1      49.702  12.410  15.294  0.00  0.00    -0.044 A 
ATOM     45  C   UNL     1      50.838  11.936  14.663  0.00  0.00    +0.152 A 
ATOM     48  C   UNL     1      52.004  12.688  14.679  0.00  0.00    -0.044 A 
ATOM     49  C   UNL     1      52.026  13.904  15.331  0.00  0.00    +0.079 A 
ATOM     50  C   UNL     1      50.893  14.380  15.967  0.00  0.00    -0.186 A 
ATOM     51  C   UNL     1      50.953  15.703  16.678  0.00  0.00    +0.058 C 
ATOM     52  C   UNL     1      49.529  16.234  16.859  0.00  0.00    -0.033 C 
ATOM     53  C   UNL     1      51.715  16.758  15.870  0.00  0.00    +0.090 C 
ENDROOT
BRANCH  10  11
ATOM     11  C   UNL     1      44.264  19.192  18.956  0.00  0.00    +0.078 A 
ATOM     12  C   UNL     1      43.504  18.764  19.990  0.00  0.00    -0.015 A 
ATOM     13  C   UNL     1      42.230  19.481  19.882  0.00  0.00    -0.138 A 
ATOM     14  C   UNL     1      41.050  19.485  20.628  0.00  0.00    +0.084 A 
ATOM     15  C   UNL     1      40.013  20.291  20.253  0.00  0.00    -0.019 A 
ATOM     16  C   UNL     1      40.126  21.107  19.130  0.00  0.00    +0.137 A 
ATOM     19  C   UNL     1      41.288  21.114  18.379  0.00  0.00    +0.003 A 
ATOM     20  C   UNL     1      42.352  20.302  18.747  0.00  0.00    +0.076 A 
ATOM     21  O   UNL     1      43.581  20.100  18.231  0.00  0.00    -0.184 OA
BRANCH  16  17
ATOM     17  O   UNL     1      39.086  21.903  18.768  0.00  0.00    -0.492 OA
ATOM     18  H   UNL     1      39.322  22.834  18.659  0.00  0.00    +0.396 HD
ENDBRANCH  16  17
ENDBRANCH  10  11
BRANCH  25  26
ATOM     26  C   UNL     1      49.110  14.685  18.800  0.00  0.00    -0.161 A 
ATOM     27  C   UNL     1      50.151  15.346  19.426  0.00  0.00    +0.063 A 
ATOM     28  C   UNL     1      50.592  14.926  20.666  0.00  0.00    -0.014 A 
ATOM     29  C   UNL     1      49.993  13.839  21.286  0.00  0.00    +0.141 A 
ATOM     32  C   UNL     1      48.949  13.175  20.661  0.00  0.00    -0.133 A 
ATOM     39  C   UNL     1      48.503  13.601  19.419  0.00  0.00    +0.161 A 
BRANCH  29  30
ATOM     30  O   UNL     1      50.427  13.427  22.505  0.00  0.00    -0.490 OA
ATOM     31  H   UNL     1      51.150  12.786  22.470  0.00  0.00    +0.393 HD
ENDBRANCH  29  30
BRANCH  39  40
ATOM     40  O   UNL     1      47.477  12.955  18.806  0.00  0.00    -0.477 OA
ATOM     41  H   UNL     1      47.715  12.553  17.959  0.00  0.00    +0.395 HD
ENDBRANCH  39  40
BRANCH  32  33
ATOM     33  C   UNL     1      48.295  11.995  21.332  0.00  0.00    +0.089 C 
BRANCH  33  34
ATOM     34  C   UNL     1      49.215  10.776  21.231  0.00  0.00    +0.058 C 
BRANCH  34  35
ATOM     35  C   UNL     1      49.611  10.563  19.793  0.00  0.00    -0.057 C 
ATOM     36  C   UNL     1      50.877  10.535  19.459  0.00  0.00    -0.132 C 
ATOM     37  C   UNL     1      51.273  10.322  18.021  0.00  0.00    +0.072 C 
ATOM     38  C   UNL     1      51.939  10.718  20.513  0.00  0.00    +0.071 C 
ENDBRANCH  34  35
ENDBRANCH  33  34
ENDBRANCH  32  33
ENDBRANCH  25  26
BRANCH   6   7
ATOM      7  O   UNL     1      49.048  20.024  18.690  0.00  0.00    -0.484 OA
ATOM      8  H   UNL     1      49.552  19.894  19.504  0.00  0.00    +0.392 HD
ENDBRANCH   6   7
BRANCH  45  46
ATOM     46  O   UNL     1      50.812  10.734  14.028  0.00  0.00    -0.495 OA
ATOM     47  H   UNL     1      51.638  10.508  13.580  0.00  0.00    +0.396 HD
ENDBRANCH  45  46
TORSDOF 10
ENDMDL
MODEL 3
REMARK VINA RESULT:      -6.4      2.638      5.555
REMARK  Name = ZINC95485989
REMARK  13 active torsions:
REMARK  status: ('A' for Active; 'I' for Inactive)
REMARK    1  A    between atoms: C1_1  and  C2_2
REMARK    2  A    between atoms: C6_7  and  O8_51
REMARK    3  A    between atoms: C8_9  and  C33_41
REMARK    4  A    between atoms: C11_13  and  C21_27
REMARK    5  A    between atoms: C18_22  and  O3_26
REMARK    6  A    between atoms: C24_30  and  O5_40
REMARK    7  A    between atoms: C25_31  and  C27_34
REMARK    8  A    between atoms: C26_32  and  O4_33
REMARK    9  A    between atoms: C27_34  and  C28_35
REMARK   10  A    between atoms: C28_35  and  C29_36
REMARK   11  A    between atoms: C30_37  and  C31_38
REMARK   12  A    between atoms: C30_37  and  C32_39
REMARK   13  A    between atoms: C38_46  and  O7_50
REMARK                            x       y       z     vdW  Elec       q    Type
REMARK                         _______ _______ _______ _____ _____    ______ ____
ROOT
ATOM      1  C   UNL     1      49.830  10.352  17.042  0.00  0.00    +0.072 C 
ATOM      2  C   UNL     1      50.204  11.713  17.570  0.00  0.00    -0.128 C 
ATOM      3  C   UNL     1      49.323  12.666  17.445  0.00  0.00    -0.004 C 
ATOM      4  C   UNL     1      49.599  14.058  17.918  0.00  0.00    +0.097 C 
ATOM      5  C   UNL     1      48.405  14.781  18.462  0.00  0.00    -0.167 A 
ATOM      6  C   UNL     1      47.148  14.555  17.918  0.00  0.00    +0.157 A 
ATOM      9  C   UNL     1      46.042  15.227  18.407  0.00  0.00    -0.019 A 
ATOM     10  C   UNL     1      46.196  16.138  19.453  0.00  0.00    +0.027 A 
ATOM     22  C   UNL     1      47.458  16.360  20.000  0.00  0.00    +0.014 A 
ATOM     23  C   UNL     1      48.567  15.678  19.511  0.00  0.00    +0.208 A 
ATOM     24  O   UNL     1      49.768  15.909  20.101  0.00  0.00    -0.297 OA
ATOM     25  C   UNL     1      50.968  15.402  19.505  0.00  0.00    +0.367 C 
ATOM     42  O   UNL     1      51.982  15.308  20.509  0.00  0.00    -0.294 OA
ATOM     43  C   UNL     1      53.020  14.507  20.338  0.00  0.00    +0.180 A 
ATOM     44  C   UNL     1      54.115  14.664  21.184  0.00  0.00    -0.044 A 
ATOM     45  C   UNL     1      55.219  13.841  21.058  0.00  0.00    +0.152 A 
ATOM     48  C   UNL     1      55.238  12.851  20.086  0.00  0.00    -0.044 A 
ATOM     49  C   UNL     1      54.156  12.698  19.243  0.00  0.00    +0.079 A 
ATOM     50  C   UNL     1      53.051  13.523  19.362  0.00  0.00    -0.186 A 
ATOM     51  C   UNL     1      51.893  13.338  18.421  0.00  0.00    +0.058 C 
ATOM     52  C   UNL     1      50.648  13.983  19.034  0.00  0.00    -0.033 C 
ATOM     53  C   UNL     1      51.559  11.859  18.203  0.00  0.00    +0.090 C 
ENDROOT
BRANCH  10  11
ATOM     11  C   UNL     1      45.022  16.866  19.980  0.00  0.00    +0.078 A 
ATOM     12  C   UNL     1      44.521  16.733  21.229  0.00  0.00    -0.015 A 
ATOM     13  C   UNL     1      43.370  17.638  21.305  0.00  0.00    -0.138 A 
ATOM     14  C   UNL     1      42.449  17.957  22.304  0.00  0.00    +0.084 A 
ATOM     15  C   UNL     1      41.463  18.869  22.051  0.00  0.00    -0.019 A 
ATOM     16  C   UNL     1      41.374  19.481  20.803  0.00  0.00    +0.137 A 
ATOM     19  C   UNL     1      42.279  19.176  19.803  0.00  0.00    +0.003 A 
ATOM     20  C   UNL     1      43.288  18.252  20.043  0.00  0.00    +0.076 A 
ATOM     21  O   UNL     1      44.293  17.766  19.288  0.00  0.00    -0.184 OA
BRANCH  16  17
ATOM     17  O   UNL     1      40.389  20.386  20.566  0.00  0.00    -0.492 OA
ATOM     18  H   UNL     1      39.753  20.476  21.290  0.00  0.00    +0.396 HD
ENDBRANCH  16  17
ENDBRANCH  10  11
BRANCH  25  26
ATOM     26  C   UNL     1      51.417  16.288  18.372  0.00  0.00    -0.161 A 
ATOM     27  C   UNL     1      51.505  15.779  17.090  0.00  0.00    +0.063 A 
ATOM     28  C   UNL     1      51.917  16.588  16.049  0.00  0.00    -0.014 A 
ATOM     29  C   UNL     1      52.245  17.916  16.288  0.00  0.00    +0.141 A 
ATOM     32  C   UNL     1      52.157  18.429  17.573  0.00  0.00    -0.133 A 
ATOM     39  C   UNL     1      51.738  17.616  18.615  0.00  0.00    +0.161 A 
BRANCH  29  30
ATOM     30  O   UNL     1      52.650  18.712  15.265  0.00  0.00    -0.490 OA
ATOM     31  H   UNL     1      52.143  19.531  15.179  0.00  0.00    +0.393 HD
ENDBRANCH  29  30
BRANCH  39  40
ATOM     40  O   UNL     1      51.646  18.118  19.874  0.00  0.00    -0.477 OA
ATOM     41  H   UNL     1      51.018  17.649  20.440  0.00  0.00    +0.395 HD
ENDBRANCH  39  40
BRANCH  32  33
ATOM     33  C   UNL     1      52.512  19.870  17.836  0.00  0.00    +0.089 C 
BRANCH  33  34
ATOM     34  C   UNL     1      51.272  20.744  17.638  0.00  0.00    +0.058 C 
BRANCH  34  35
ATOM     35  C   UNL     1      50.706  21.128  18.981  0.00  0.00    -0.057 C 
ATOM     36  C   UNL     1      49.557  20.637  19.372  0.00  0.00    -0.132 C 
ATOM     37  C   UNL     1      48.992  21.021  20.715  0.00  0.00    +0.072 C 
ATOM     38  C   UNL     1      48.799  19.690  18.479  0.00  0.00    +0.071 C 
ENDBRANCH  34  35
ENDBRANCH  33  34
ENDBRANCH  32  33
ENDBRANCH  25  26
BRANCH   6   7
ATOM      7  O   UNL     1      47.003  13.668  16.897  0.00  0.00    -0.484 OA
ATOM      8  H   UNL     1      47.831  13.266  16.605  0.00  0.00    +0.392 HD
ENDBRANCH   6   7
BRANCH  45  46
ATOM     46  O   UNL     1      56.284  14.001  21.887  0.00  0.00    -0.495 OA
ATOM     47  H   UNL     1      56.340  14.878  22.291  0.00  0.00    +0.396 HD
ENDBRANCH  45  46
TORSDOF 10
ENDMDL
MODEL 4
REMARK VINA RESULT:      -4.3      2.623      6.143
REMARK  Name = ZINC95485989
REMARK  13 active torsions:
REMARK  status: ('A' for Active; 'I' for Inactive)
REMARK    1  A    between atoms: C1_1  and  C2_2
REMARK    2  A    between atoms: C6_7  and  O8_51
REMARK    3  A    between atoms: C8_9  and  C33_41
REMARK    4  A    between atoms: C11_13  and  C21_27
REMARK    5  A    between atoms: C18_22  and  O3_26
REMARK    6  A    between atoms: C24_30  and  O5_40
REMARK    7  A    between atoms: C25_31  and  C27_34
REMARK    8  A    between atoms: C26_32  and  O4_33
REMARK    9  A    between atoms: C27_34  and  C28_35
REMARK   10  A    between atoms: C28_35  and  C29_36
REMARK   11  A    between atoms: C30_37  and  C31_38
REMARK   12  A    between atoms: C30_37  and  C32_39
REMARK   13  A    between atoms: C38_46  and  O7_50
REMARK                            x       y       z     vdW  Elec       q    Type
REMARK                         _______ _______ _______ _____ _____    ______ ____
ROOT
ATOM      1  C   UNL     1      50.224  10.297  22.504  0.00  0.00    +0.072 C 
ATOM      2  C   UNL     1      50.473  11.637  21.860  0.00  0.00    -0.128 C 
ATOM      3  C   UNL     1      49.472  12.200  21.244  0.00  0.00    -0.004 C 
ATOM      4  C   UNL     1      49.615  13.521  20.555  0.00  0.00    +0.097 C 
ATOM      5  C   UNL     1      48.397  14.391  20.615  0.00  0.00    -0.167 A 
ATOM      6  C   UNL     1      47.132  13.820  20.592  0.00  0.00    +0.157 A 
ATOM      9  C   UNL     1      46.002  14.618  20.636  0.00  0.00    -0.019 A 
ATOM     10  C   UNL     1      46.141  16.005  20.702  0.00  0.00    +0.027 A 
ATOM     22  C   UNL     1      47.411  16.575  20.730  0.00  0.00    +0.014 A 
ATOM     23  C   UNL     1      48.545  15.771  20.693  0.00  0.00    +0.208 A 
ATOM     24  O   UNL     1      49.759  16.377  20.754  0.00  0.00    -0.297 OA
ATOM     25  C   UNL     1      50.950  15.621  20.505  0.00  0.00    +0.367 C 
ATOM     42  O   UNL     1      52.060  16.289  21.111  0.00  0.00    -0.294 OA
ATOM     43  C   UNL     1      53.169  15.625  21.390  0.00  0.00    +0.180 A 
ATOM     44  C   UNL     1      54.311  16.360  21.698  0.00  0.00    -0.044 A 
ATOM     45  C   UNL     1      55.493  15.714  22.013  0.00  0.00    +0.152 A 
ATOM     48  C   UNL     1      55.543  14.327  22.026  0.00  0.00    -0.044 A 
ATOM     49  C   UNL     1      54.413  13.598  21.716  0.00  0.00    +0.079 A 
ATOM     50  C   UNL     1      53.230  14.240  21.394  0.00  0.00    -0.186 A 
ATOM     51  C   UNL     1      52.019  13.418  21.050  0.00  0.00    +0.058 C 
ATOM     52  C   UNL     1      50.767  14.282  21.221  0.00  0.00    -0.033 C 
ATOM     53  C   UNL     1      51.853  12.217  21.986  0.00  0.00    +0.090 C 
ENDROOT
BRANCH  10  11
ATOM     11  C   UNL     1      44.940  16.868  20.743  0.00  0.00    +0.078 A 
ATOM     12  C   UNL     1      43.939  16.763  21.646  0.00  0.00    -0.015 A 
ATOM     13  C   UNL     1      42.973  17.812  21.306  0.00  0.00    -0.138 A 
ATOM     14  C   UNL     1      41.752  18.221  21.843  0.00  0.00    +0.084 A 
ATOM     15  C   UNL     1      41.077  19.265  21.277  0.00  0.00    -0.019 A 
ATOM     16  C   UNL     1      41.601  19.923  20.167  0.00  0.00    +0.137 A 
ATOM     19  C   UNL     1      42.809  19.530  19.622  0.00  0.00    +0.003 A 
ATOM     20  C   UNL     1      43.510  18.472  20.185  0.00  0.00    +0.076 A 
ATOM     21  O   UNL     1      44.683  17.878  19.889  0.00  0.00    -0.184 OA
BRANCH  16  17
ATOM     17  O   UNL     1      40.918  20.960  19.615  0.00  0.00    -0.492 OA
ATOM     18  H   UNL     1      39.973  20.964  19.820  0.00  0.00    +0.396 HD
ENDBRANCH  16  17
ENDBRANCH  10  11
BRANCH  25  26
ATOM     26  C   UNL     1      51.174  15.447  19.025  0.00  0.00    -0.161 A 
ATOM     27  C   UNL     1      50.960  14.216  18.434  0.00  0.00    +0.063 A 
ATOM     28  C   UNL     1      51.164  14.053  17.077  0.00  0.00    -0.014 A 
ATOM     29  C   UNL     1      51.586  15.126  16.304  0.00  0.00    +0.141 A 
ATOM     32  C   UNL     1      51.801  16.362  16.895  0.00  0.00    -0.133 A 
ATOM     39  C   UNL     1      51.590  16.524  18.255  0.00  0.00    +0.161 A 
BRANCH  29  30
ATOM     30  O   UNL     1      51.787  14.966  14.970  0.00  0.00    -0.490 OA
ATOM     31  H   UNL     1      51.179  14.340  14.553  0.00  0.00    +0.393 HD
ENDBRANCH  29  30
BRANCH  39  40
ATOM     40  O   UNL     1      51.794  17.736  18.835  0.00  0.00    -0.477 OA
ATOM     41  H   UNL     1      50.994  18.137  19.201  0.00  0.00    +0.395 HD
ENDBRANCH  39  40
BRANCH  32  33
ATOM     33  C   UNL     1      52.258  17.529  16.058  0.00  0.00    +0.089 C 
BRANCH  33  34
ATOM     34  C   UNL     1      51.156  18.590  16.017  0.00  0.00    +0.058 C 
BRANCH  34  35
ATOM     35  C   UNL     1      51.620  19.825  16.746  0.00  0.00    -0.057 C 
ATOM     36  C   UNL     1      50.889  20.330  17.708  0.00  0.00    -0.132 C 
ATOM     37  C   UNL     1      51.353  21.565  18.436  0.00  0.00    +0.072 C 
ATOM     38  C   UNL     1      49.585  19.678  18.087  0.00  0.00    +0.071 C 
ENDBRANCH  34  35
ENDBRANCH  33  34
ENDBRANCH  32  33
ENDBRANCH  25  26
BRANCH   6   7
ATOM      7  O   UNL     1      47.002  12.468  20.524  0.00  0.00    -0.484 OA
ATOM      8  H   UNL     1      46.167  12.136  20.878  0.00  0.00    +0.392 HD
ENDBRANCH   6   7
BRANCH  45  46
ATOM     46  O   UNL     1      56.604  16.437  22.312  0.00  0.00    -0.495 OA
ATOM     47  H   UNL     1      56.585  16.844  23.188  0.00  0.00    +0.396 HD
ENDBRANCH  45  46
TORSDOF 10
ENDMDL
MODEL 5
REMARK VINA RESULT:      -4.1      3.120      6.359
REMARK  Name = ZINC95485989
REMARK  13 active torsions:
REMARK  status: ('A' for Active; 'I' for Inactive)
REMARK    1  A    between atoms: C1_1  and  C2_2
REMARK    2  A    between atoms: C6_7  and  O8_51
REMARK    3  A    between atoms: C8_9  and  C33_41
REMARK    4  A    between atoms: C11_13  and  C21_27
REMARK    5  A    between atoms: C18_22  and  O3_26
REMARK    6  A    between atoms: C24_30  and  O5_40
REMARK    7  A    between atoms: C25_31  and  C27_34
REMARK    8  A    between atoms: C26_32  and  O4_33
REMARK    9  A    between atoms: C27_34  and  C28_35
REMARK   10  A    between atoms: C28_35  and  C29_36
REMARK   11  A    between atoms: C30_37  and  C31_38
REMARK   12  A    between atoms: C30_37  and  C32_39
REMARK   13  A    between atoms: C38_46  and  O7_50
REMARK                            x       y       z     vdW  Elec       q    Type
REMARK                         _______ _______ _______ _____ _____    ______ ____
ROOT
ATOM      1  C   UNL     1      49.218  10.309  21.806  0.00  0.00    +0.072 C 
ATOM      2  C   UNL     1      49.939  11.489  21.208  0.00  0.00    -0.128 C 
ATOM      3  C   UNL     1      49.210  12.482  20.780  0.00  0.00    -0.004 C 
ATOM      4  C   UNL     1      49.823  13.694  20.152  0.00  0.00    +0.097 C 
ATOM      5  C   UNL     1      49.106  14.977  20.441  0.00  0.00    -0.167 A 
ATOM      6  C   UNL     1      47.725  14.987  20.575  0.00  0.00    +0.157 A 
ATOM      9  C   UNL     1      47.054  16.170  20.832  0.00  0.00    -0.019 A 
ATOM     10  C   UNL     1      47.775  17.358  20.953  0.00  0.00    +0.027 A 
ATOM     22  C   UNL     1      49.162  17.345  20.822  0.00  0.00    +0.014 A 
ATOM     23  C   UNL     1      49.834  16.154  20.572  0.00  0.00    +0.208 A 
ATOM     24  O   UNL     1      51.189  16.192  20.484  0.00  0.00    -0.297 OA
ATOM     25  C   UNL     1      51.909  15.044  20.019  0.00  0.00    +0.367 C 
ATOM     42  O   UNL     1      53.258  15.121  20.488  0.00  0.00    -0.294 OA
ATOM     43  C   UNL     1      54.003  14.031  20.561  0.00  0.00    +0.180 A 
ATOM     44  C   UNL     1      55.376  14.187  20.735  0.00  0.00    -0.044 A 
ATOM     45  C   UNL     1      56.198  13.079  20.834  0.00  0.00    +0.152 A 
ATOM     48  C   UNL     1      55.654  11.804  20.763  0.00  0.00    -0.044 A 
ATOM     49  C   UNL     1      54.295  11.648  20.585  0.00  0.00    +0.079 A 
ATOM     50  C   UNL     1      53.469  12.754  20.480  0.00  0.00    -0.186 A 
ATOM     51  C   UNL     1      51.994  12.551  20.276  0.00  0.00    +0.058 C 
ATOM     52  C   UNL     1      51.256  13.829  20.678  0.00  0.00    -0.033 C 
ATOM     53  C   UNL     1      51.439  11.428  21.158  0.00  0.00    +0.090 C 
ENDROOT
BRANCH  10  11
ATOM     11  C   UNL     1      47.069  18.629  21.221  0.00  0.00    +0.078 A 
ATOM     12  C   UNL     1      45.934  18.750  21.946  0.00  0.00    -0.015 A 
ATOM     13  C   UNL     1      45.600  20.177  21.946  0.00  0.00    -0.138 A 
ATOM     14  C   UNL     1      44.570  20.935  22.506  0.00  0.00    +0.084 A 
ATOM     15  C   UNL     1      44.543  22.287  22.315  0.00  0.00    -0.019 A 
ATOM     16  C   UNL     1      45.536  22.913  21.566  0.00  0.00    +0.137 A 
ATOM     19  C   UNL     1      46.563  22.177  21.004  0.00  0.00    +0.003 A 
ATOM     20  C   UNL     1      46.607  20.801  21.189  0.00  0.00    +0.076 A 
ATOM     21  O   UNL     1      47.462  19.841  20.781  0.00  0.00    -0.184 OA
BRANCH  16  17
ATOM     17  O   UNL     1      45.496  24.259  21.384  0.00  0.00    -0.492 OA
ATOM     18  H   UNL     1      46.345  24.701  21.522  0.00  0.00    +0.396 HD
ENDBRANCH  16  17
ENDBRANCH  10  11
BRANCH  25  26
ATOM     26  C   UNL     1      51.871  14.963  18.515  0.00  0.00    -0.161 A 
ATOM     27  C   UNL     1      51.481  13.789  17.896  0.00  0.00    +0.063 A 
ATOM     28  C   UNL     1      51.444  13.711  16.518  0.00  0.00    -0.014 A 
ATOM     29  C   UNL     1      51.800  14.810  15.749  0.00  0.00    +0.141 A 
ATOM     32  C   UNL     1      52.191  15.988  16.367  0.00  0.00    -0.133 A 
ATOM     39  C   UNL     1      52.221  16.067  17.751  0.00  0.00    +0.161 A 
BRANCH  29  30
ATOM     30  O   UNL     1      51.764  14.733  14.394  0.00  0.00    -0.490 OA
ATOM     31  H   UNL     1      50.899  14.491  14.036  0.00  0.00    +0.393 HD
ENDBRANCH  29  30
BRANCH  39  40
ATOM     40  O   UNL     1      52.598  17.222  18.358  0.00  0.00    -0.477 OA
ATOM     41  H   UNL     1      53.553  17.380  18.344  0.00  0.00    +0.395 HD
ENDBRANCH  39  40
BRANCH  32  33
ATOM     33  C   UNL     1      52.577  17.184  15.535  0.00  0.00    +0.089 C 
BRANCH  33  34
ATOM     34  C   UNL     1      51.423  18.189  15.521  0.00  0.00    +0.058 C 
BRANCH  34  35
ATOM     35  C   UNL     1      51.848  19.453  16.223  0.00  0.00    -0.057 C 
ATOM     36  C   UNL     1      51.168  19.891  17.254  0.00  0.00    -0.132 C 
ATOM     37  C   UNL     1      51.594  21.154  17.955  0.00  0.00    +0.072 C 
ATOM     38  C   UNL     1      49.960  19.131  17.737  0.00  0.00    +0.071 C 
ENDBRANCH  34  35
ENDBRANCH  33  34
ENDBRANCH  32  33
ENDBRANCH  25  26
BRANCH   6   7
ATOM      7  O   UNL     1      47.025  13.827  20.453  0.00  0.00    -0.484 OA
ATOM      8  H   UNL     1      47.083  13.423  19.578  0.00  0.00    +0.392 HD
ENDBRANCH   6   7
BRANCH  45  46
ATOM     46  O   UNL     1      57.537  13.239  21.003  0.00  0.00    -0.495 OA
ATOM     47  H   UNL     1      57.774  13.869  21.696  0.00  0.00    +0.396 HD
ENDBRANCH  45  46
TORSDOF 10
ENDMDL
MODEL 6
REMARK VINA RESULT:      -3.8      3.603      9.613
REMARK  Name = ZINC95485989
REMARK  13 active torsions:
REMARK  status: ('A' for Active; 'I' for Inactive)
REMARK    1  A    between atoms: C1_1  and  C2_2
REMARK    2  A    between atoms: C6_7  and  O8_51
REMARK    3  A    between atoms: C8_9  and  C33_41
REMARK    4  A    between atoms: C11_13  and  C21_27
REMARK    5  A    between atoms: C18_22  and  O3_26
REMARK    6  A    between atoms: C24_30  and  O5_40
REMARK    7  A    between atoms: C25_31  and  C27_34
REMARK    8  A    between atoms: C26_32  and  O4_33
REMARK    9  A    between atoms: C27_34  and  C28_35
REMARK   10  A    between atoms: C28_35  and  C29_36
REMARK   11  A    between atoms: C30_37  and  C31_38
REMARK   12  A    between atoms: C30_37  and  C32_39
REMARK   13  A    between atoms: C38_46  and  O7_50
REMARK                            x       y       z     vdW  Elec       q    Type
REMARK                         _______ _______ _______ _____ _____    ______ ____
ROOT
ATOM      1  C   UNL     1      51.477  20.783  16.150  0.00  0.00    +0.072 C 
ATOM      2  C   UNL     1      50.763  19.870  17.113  0.00  0.00    -0.128 C 
ATOM      3  C   UNL     1      51.196  18.644  17.208  0.00  0.00    -0.004 C 
ATOM      4  C   UNL     1      50.549  17.650  18.120  0.00  0.00    +0.097 C 
ATOM      5  C   UNL     1      51.492  16.667  18.743  0.00  0.00    -0.167 A 
ATOM      6  C   UNL     1      52.599  16.221  18.035  0.00  0.00    +0.157 A 
ATOM      9  C   UNL     1      53.470  15.305  18.599  0.00  0.00    -0.019 A 
ATOM     10  C   UNL     1      53.228  14.829  19.888  0.00  0.00    +0.027 A 
ATOM     22  C   UNL     1      52.118  15.281  20.598  0.00  0.00    +0.014 A 
ATOM     23  C   UNL     1      51.249  16.207  20.032  0.00  0.00    +0.208 A 
ATOM     24  O   UNL     1      50.200  16.638  20.779  0.00  0.00    -0.297 OA
ATOM     25  C   UNL     1      49.163  17.420  20.175  0.00  0.00    +0.367 C 
ATOM     42  O   UNL     1      48.489  18.165  21.193  0.00  0.00    -0.294 OA
ATOM     43  C   UNL     1      47.795  19.246  20.881  0.00  0.00    +0.180 A 
ATOM     44  C   UNL     1      46.924  19.763  21.837  0.00  0.00    -0.044 A 
ATOM     45  C   UNL     1      46.188  20.902  21.568  0.00  0.00    +0.152 A 
ATOM     48  C   UNL     1      46.316  21.537  20.340  0.00  0.00    -0.044 A 
ATOM     49  C   UNL     1      47.175  21.022  19.390  0.00  0.00    +0.079 A 
ATOM     50  C   UNL     1      47.910  19.880  19.653  0.00  0.00    -0.186 A 
ATOM     51  C   UNL     1      48.828  19.338  18.593  0.00  0.00    +0.058 C 
ATOM     52  C   UNL     1      49.860  18.420  19.252  0.00  0.00    -0.033 C 
ATOM     53  C   UNL     1      49.614  20.448  17.889  0.00  0.00    +0.090 C 
ENDROOT
BRANCH  10  11
ATOM     11  C   UNL     1      54.147  13.845  20.499  0.00  0.00    +0.078 A 
ATOM     12  C   UNL     1      53.767  12.689  21.091  0.00  0.00    -0.015 A 
ATOM     13  C   UNL     1      55.000  12.042  21.548  0.00  0.00    -0.138 A 
ATOM     14  C   UNL     1      55.282  10.850  22.216  0.00  0.00    +0.084 A 
ATOM     15  C   UNL     1      56.577  10.524  22.505  0.00  0.00    -0.019 A 
ATOM     16  C   UNL     1      57.616  11.374  22.136  0.00  0.00    +0.137 A 
ATOM     19  C   UNL     1      57.354  12.560  21.474  0.00  0.00    +0.003 A 
ATOM     20  C   UNL     1      56.044  12.906  21.171  0.00  0.00    +0.076 A 
ATOM     21  O   UNL     1      55.489  13.964  20.546  0.00  0.00    -0.184 OA
BRANCH  16  17
ATOM     17  O   UNL     1      58.900  11.037  22.430  0.00  0.00    -0.492 OA
ATOM     18  H   UNL     1      59.133  10.130  22.190  0.00  0.00    +0.396 HD
ENDBRANCH  16  17
ENDBRANCH  10  11
BRANCH  25  26
ATOM     26  C   UNL     1      48.196  16.538  19.428  0.00  0.00    -0.161 A 
ATOM     27  C   UNL     1      47.736  16.918  18.180  0.00  0.00    +0.063 A 
ATOM     28  C   UNL     1      46.849  16.113  17.493  0.00  0.00    -0.014 A 
ATOM     29  C   UNL     1      46.416  14.919  18.054  0.00  0.00    +0.141 A 
ATOM     32  C   UNL     1      46.875  14.536  19.305  0.00  0.00    -0.133 A 
ATOM     39  C   UNL     1      47.770  15.343  19.990  0.00  0.00    +0.161 A 
BRANCH  29  30
ATOM     30  O   UNL     1      45.544  14.127  17.378  0.00  0.00    -0.490 OA
ATOM     31  H   UNL     1      45.868  13.230  17.219  0.00  0.00    +0.393 HD
ENDBRANCH  29  30
BRANCH  39  40
ATOM     40  O   UNL     1      48.226  14.967  21.213  0.00  0.00    -0.477 OA
ATOM     41  H   UNL     1      47.735  15.353  21.952  0.00  0.00    +0.395 HD
ENDBRANCH  39  40
BRANCH  32  33
ATOM     33  C   UNL     1      46.408  13.240  19.916  0.00  0.00    +0.089 C 
BRANCH  33  34
ATOM     34  C   UNL     1      47.106  12.068  19.224  0.00  0.00    +0.058 C 
BRANCH  34  35
ATOM     35  C   UNL     1      48.600  12.244  19.321  0.00  0.00    -0.057 C 
ATOM     36  C   UNL     1      49.330  12.259  18.234  0.00  0.00    -0.132 C 
ATOM     37  C   UNL     1      50.823  12.434  18.333  0.00  0.00    +0.072 C 
ATOM     38  C   UNL     1      48.678  12.100  16.886  0.00  0.00    +0.071 C 
ENDBRANCH  34  35
ENDBRANCH  33  34
ENDBRANCH  32  33
ENDBRANCH  25  26
BRANCH   6   7
ATOM      7  O   UNL     1      52.830  16.686  16.778  0.00  0.00    -0.484 OA
ATOM      8  H   UNL     1      53.554  17.324  16.721  0.00  0.00    +0.392 HD
ENDBRANCH   6   7
BRANCH  45  46
ATOM     46  O   UNL     1      45.339  21.401  22.505  0.00  0.00    -0.495 OA
ATOM     47  H   UNL     1      45.673  21.340  23.410  0.00  0.00    +0.396 HD
ENDBRANCH  45  46
TORSDOF 10
ENDMDL
