MODEL 1
REMARK VINA RESULT:      -6.1      0.000      0.000
REMARK  Name = ZINC95485916
REMARK  8 active torsions:
REMARK  status: ('A' for Active; 'I' for Inactive)
REMARK    1  A    between atoms: C1_1  and  C2_2
REMARK    2  A    between atoms: C2_2  and  C19_24
REMARK    3  A    between atoms: C3_3  and  C4_4
REMARK    4  A    between atoms: C4_4  and  C5_5
REMARK    5  A    between atoms: C6_6  and  O5_23
REMARK    6  A    between atoms: C8_8  and  O4_22
REMARK    7  A    between atoms: C14_15  and  O3_20
REMARK    8  A    between atoms: O3_20  and  C18_21
REMARK                            x       y       z     vdW  Elec       q    Type
REMARK                         _______ _______ _______ _____ _____    ______ ____
ROOT
ATOM      6  C   UNL     1      45.131  20.189  20.502  0.00  0.00    -0.141 A 
ATOM      7  C   UNL     1      43.967  19.440  20.578  0.00  0.00    +0.197 A 
ATOM     10  C   UNL     1      43.952  18.108  20.182  0.00  0.00    -0.055 A 
ATOM     11  C   UNL     1      45.107  17.516  19.701  0.00  0.00    +0.216 A 
ATOM     14  C   UNL     1      46.283  18.271  19.615  0.00  0.00    -0.268 A 
ATOM     15  C   UNL     1      47.527  17.681  19.089  0.00  0.00    +0.439 A 
ATOM     16  O   UNL     1      47.655  16.481  18.927  0.00  0.00    -0.424 OA
ATOM     17  C   UNL     1      48.605  18.642  18.755  0.00  0.00    -0.182 A 
ATOM     18  C   UNL     1      49.710  18.249  18.001  0.00  0.00    +0.086 A 
ATOM     19  C   UNL     1      50.695  19.172  17.705  0.00  0.00    +0.103 A 
ATOM     22  C   UNL     1      50.580  20.482  18.159  0.00  0.00    +0.002 A 
ATOM     23  C   UNL     1      49.492  20.875  18.907  0.00  0.00    +0.050 A 
ATOM     24  C   UNL     1      48.491  19.961  19.218  0.00  0.00    +0.117 A 
ATOM     25  O   UNL     1      47.431  20.350  19.957  0.00  0.00    -0.219 OA
ATOM     26  C   UNL     1      46.300  19.618  20.019  0.00  0.00    +0.197 A 
ENDROOT
BRANCH   7   8
ATOM      8  O   UNL     1      42.828  20.014  21.044  0.00  0.00    -0.483 OA
ATOM      9  H   UNL     1      42.033  19.483  20.899  0.00  0.00    +0.400 HD
ENDBRANCH   7   8
BRANCH  11  12
ATOM     12  O   UNL     1      45.099  16.215  19.316  0.00  0.00    -0.473 OA
ATOM     13  H   UNL     1      44.574  15.639  19.888  0.00  0.00    +0.401 HD
ENDBRANCH  11  12
BRANCH  19  20
ATOM     20  O   UNL     1      51.777  18.800  16.969  0.00  0.00    -0.311 OA
ATOM     21  C   UNL     1      52.191  19.689  15.930  0.00  0.00    +0.246 C 
ENDBRANCH  19  20
BRANCH   6   5
ATOM      5  C   UNL     1      45.125  21.632  20.938  0.00  0.00    +0.135 C 
BRANCH   5   4
ATOM      1  C   UNL     1      45.744  24.383  20.946  0.00  0.00    +0.077 C 
ATOM      2  C   UNL     1      44.941  23.793  19.817  0.00  0.00    -0.125 C 
ATOM      3  C   UNL     1      44.409  24.684  18.724  0.00  0.00    +0.073 C 
ATOM      4  C   UNL     1      44.704  22.504  19.784  0.00  0.00    -0.057 C 
ENDBRANCH   5   4
ENDBRANCH   6   5
TORSDOF 5
ENDMDL
MODEL 2
REMARK VINA RESULT:      -6.0     20.155     21.961
REMARK  Name = ZINC95485916
REMARK  8 active torsions:
REMARK  status: ('A' for Active; 'I' for Inactive)
REMARK    1  A    between atoms: C1_1  and  C2_2
REMARK    2  A    between atoms: C2_2  and  C19_24
REMARK    3  A    between atoms: C3_3  and  C4_4
REMARK    4  A    between atoms: C4_4  and  C5_5
REMARK    5  A    between atoms: C6_6  and  O5_23
REMARK    6  A    between atoms: C8_8  and  O4_22
REMARK    7  A    between atoms: C14_15  and  O3_20
REMARK    8  A    between atoms: O3_20  and  C18_21
REMARK                            x       y       z     vdW  Elec       q    Type
REMARK                         _______ _______ _______ _____ _____    ______ ____
ROOT
ATOM      6  C   UNL     1      53.715  33.504   5.886  0.00  0.00    -0.141 A 
ATOM      7  C   UNL     1      52.717  34.122   6.624  0.00  0.00    +0.197 A 
ATOM     10  C   UNL     1      51.422  34.217   6.129  0.00  0.00    -0.055 A 
ATOM     11  C   UNL     1      51.117  33.696   4.884  0.00  0.00    +0.216 A 
ATOM     14  C   UNL     1      52.123  33.077   4.131  0.00  0.00    -0.268 A 
ATOM     15  C   UNL     1      51.840  32.528   2.793  0.00  0.00    +0.439 A 
ATOM     16  O   UNL     1      50.704  32.378   2.383  0.00  0.00    -0.424 OA
ATOM     17  C   UNL     1      53.027  32.186   1.973  0.00  0.00    -0.182 A 
ATOM     18  C   UNL     1      52.908  31.926   0.609  0.00  0.00    +0.086 A 
ATOM     19  C   UNL     1      54.036  31.614  -0.126  0.00  0.00    +0.103 A 
ATOM     22  C   UNL     1      55.279  31.561   0.496  0.00  0.00    +0.002 A 
ATOM     23  C   UNL     1      55.402  31.814   1.844  0.00  0.00    +0.050 A 
ATOM     24  C   UNL     1      54.279  32.128   2.603  0.00  0.00    +0.117 A 
ATOM     25  O   UNL     1      54.406  32.369   3.925  0.00  0.00    -0.219 OA
ATOM     26  C   UNL     1      53.433  32.977   4.633  0.00  0.00    +0.197 A 
ENDROOT
BRANCH   7   8
ATOM      8  O   UNL     1      53.009  34.640   7.844  0.00  0.00    -0.483 OA
ATOM      9  H   UNL     1      53.946  34.839   7.973  0.00  0.00    +0.400 HD
ENDBRANCH   7   8
BRANCH  11  12
ATOM     12  O   UNL     1      49.854  33.783   4.398  0.00  0.00    -0.473 OA
ATOM     13  H   UNL     1      49.653  33.138   3.706  0.00  0.00    +0.401 HD
ENDBRANCH  11  12
BRANCH  19  20
ATOM     20  O   UNL     1      53.930  31.359  -1.458  0.00  0.00    -0.311 OA
ATOM     21  C   UNL     1      54.581  30.184  -1.947  0.00  0.00    +0.246 C 
ENDBRANCH  19  20
BRANCH   6   5
ATOM      5  C   UNL     1      55.112  33.410   6.442  0.00  0.00    +0.135 C 
BRANCH   5   4
ATOM      1  C   UNL     1      57.530  32.796   5.128  0.00  0.00    +0.077 C 
ATOM      2  C   UNL     1      57.110  34.232   5.306  0.00  0.00    -0.125 C 
ATOM      3  C   UNL     1      58.014  35.345   4.841  0.00  0.00    +0.073 C 
ATOM      4  C   UNL     1      55.959  34.514   5.864  0.00  0.00    -0.057 C 
ENDBRANCH   5   4
ENDBRANCH   6   5
TORSDOF 5
ENDMDL
MODEL 3
REMARK VINA RESULT:      -5.9      2.326      4.229
REMARK  Name = ZINC95485916
REMARK  8 active torsions:
REMARK  status: ('A' for Active; 'I' for Inactive)
REMARK    1  A    between atoms: C1_1  and  C2_2
REMARK    2  A    between atoms: C2_2  and  C19_24
REMARK    3  A    between atoms: C3_3  and  C4_4
REMARK    4  A    between atoms: C4_4  and  C5_5
REMARK    5  A    between atoms: C6_6  and  O5_23
REMARK    6  A    between atoms: C8_8  and  O4_22
REMARK    7  A    between atoms: C14_15  and  O3_20
REMARK    8  A    between atoms: O3_20  and  C18_21
REMARK                            x       y       z     vdW  Elec       q    Type
REMARK                         _______ _______ _______ _____ _____    ______ ____
ROOT
ATOM      6  C   UNL     1      44.731  20.542  19.296  0.00  0.00    -0.141 A 
ATOM      7  C   UNL     1      44.873  21.575  20.210  0.00  0.00    +0.197 A 
ATOM     10  C   UNL     1      46.122  21.907  20.720  0.00  0.00    -0.055 A 
ATOM     11  C   UNL     1      47.243  21.201  20.319  0.00  0.00    +0.216 A 
ATOM     14  C   UNL     1      47.104  20.152  19.402  0.00  0.00    -0.268 A 
ATOM     15  C   UNL     1      48.272  19.364  18.968  0.00  0.00    +0.439 A 
ATOM     16  O   UNL     1      49.414  19.722  19.194  0.00  0.00    -0.424 OA
ATOM     17  C   UNL     1      47.968  18.102  18.252  0.00  0.00    -0.182 A 
ATOM     18  C   UNL     1      48.955  17.142  18.037  0.00  0.00    +0.086 A 
ATOM     19  C   UNL     1      48.636  15.975  17.369  0.00  0.00    +0.103 A 
ATOM     22  C   UNL     1      47.337  15.765  16.917  0.00  0.00    +0.002 A 
ATOM     23  C   UNL     1      46.358  16.711  17.125  0.00  0.00    +0.050 A 
ATOM     24  C   UNL     1      46.659  17.895  17.792  0.00  0.00    +0.117 A 
ATOM     25  O   UNL     1      45.697  18.821  17.986  0.00  0.00    -0.219 OA
ATOM     26  C   UNL     1      45.840  19.818  18.882  0.00  0.00    +0.197 A 
ENDROOT
BRANCH   7   8
ATOM      8  O   UNL     1      43.778  22.270  20.612  0.00  0.00    -0.483 OA
ATOM      9  H   UNL     1      43.976  23.007  21.205  0.00  0.00    +0.400 HD
ENDBRANCH   7   8
BRANCH  11  12
ATOM     12  O   UNL     1      48.465  21.523  20.811  0.00  0.00    -0.473 OA
ATOM     13  H   UNL     1      48.581  22.465  20.993  0.00  0.00    +0.401 HD
ENDBRANCH  11  12
BRANCH  19  20
ATOM     20  O   UNL     1      49.591  15.031  17.155  0.00  0.00    -0.311 OA
ATOM     21  C   UNL     1      49.227  13.912  16.343  0.00  0.00    +0.246 C 
ENDBRANCH  19  20
BRANCH   6   5
ATOM      5  C   UNL     1      43.367  20.200  18.755  0.00  0.00    +0.135 C 
BRANCH   5   4
ATOM      1  C   UNL     1      40.652  20.685  19.341  0.00  0.00    +0.077 C 
ATOM      2  C   UNL     1      41.395  19.587  20.057  0.00  0.00    -0.125 C 
ATOM      3  C   UNL     1      40.708  18.790  21.136  0.00  0.00    +0.073 C 
ATOM      4  C   UNL     1      42.640  19.324  19.742  0.00  0.00    -0.057 C 
ENDBRANCH   5   4
ENDBRANCH   6   5
TORSDOF 5
ENDMDL
MODEL 4
REMARK VINA RESULT:      -5.8      1.905      6.087
REMARK  Name = ZINC95485916
REMARK  8 active torsions:
REMARK  status: ('A' for Active; 'I' for Inactive)
REMARK    1  A    between atoms: C1_1  and  C2_2
REMARK    2  A    between atoms: C2_2  and  C19_24
REMARK    3  A    between atoms: C3_3  and  C4_4
REMARK    4  A    between atoms: C4_4  and  C5_5
REMARK    5  A    between atoms: C6_6  and  O5_23
REMARK    6  A    between atoms: C8_8  and  O4_22
REMARK    7  A    between atoms: C14_15  and  O3_20
REMARK    8  A    between atoms: O3_20  and  C18_21
REMARK                            x       y       z     vdW  Elec       q    Type
REMARK                         _______ _______ _______ _____ _____    ______ ____
ROOT
ATOM      6  C   UNL     1      48.726  19.254  20.077  0.00  0.00    -0.141 A 
ATOM      7  C   UNL     1      49.500  18.197  20.531  0.00  0.00    +0.197 A 
ATOM     10  C   UNL     1      48.927  16.957  20.788  0.00  0.00    -0.055 A 
ATOM     11  C   UNL     1      47.571  16.767  20.593  0.00  0.00    +0.216 A 
ATOM     14  C   UNL     1      46.784  17.834  20.141  0.00  0.00    -0.268 A 
ATOM     15  C   UNL     1      45.332  17.674  19.942  0.00  0.00    +0.439 A 
ATOM     16  O   UNL     1      44.797  16.581  19.934  0.00  0.00    -0.424 OA
ATOM     17  C   UNL     1      44.564  18.930  19.768  0.00  0.00    -0.182 A 
ATOM     18  C   UNL     1      43.173  18.939  19.849  0.00  0.00    +0.086 A 
ATOM     19  C   UNL     1      42.489  20.129  19.686  0.00  0.00    +0.103 A 
ATOM     22  C   UNL     1      43.189  21.306  19.442  0.00  0.00    +0.002 A 
ATOM     23  C   UNL     1      44.564  21.303  19.358  0.00  0.00    +0.050 A 
ATOM     24  C   UNL     1      45.271  20.115  19.517  0.00  0.00    +0.117 A 
ATOM     25  O   UNL     1      46.618  20.118  19.427  0.00  0.00    -0.219 OA
ATOM     26  C   UNL     1      47.363  19.088  19.878  0.00  0.00    +0.197 A 
ENDROOT
BRANCH   7   8
ATOM      8  O   UNL     1      50.830  18.377  20.729  0.00  0.00    -0.483 OA
ATOM      9  H   UNL     1      51.308  18.674  19.943  0.00  0.00    +0.400 HD
ENDBRANCH   7   8
BRANCH  11  12
ATOM     12  O   UNL     1      47.008  15.557  20.838  0.00  0.00    -0.473 OA
ATOM     13  H   UNL     1      47.319  14.853  20.254  0.00  0.00    +0.401 HD
ENDBRANCH  11  12
BRANCH  19  20
ATOM     20  O   UNL     1      41.131  20.149  19.764  0.00  0.00    -0.311 OA
ATOM     21  C   UNL     1      40.442  21.014  18.859  0.00  0.00    +0.246 C 
ENDBRANCH  19  20
BRANCH   6   5
ATOM      5  C   UNL     1      49.366  20.591  19.804  0.00  0.00    +0.135 C 
BRANCH   5   4
ATOM      1  C   UNL     1      52.027  21.323  19.220  0.00  0.00    +0.077 C 
ATOM      2  C   UNL     1      51.058  21.037  18.102  0.00  0.00    -0.125 C 
ATOM      3  C   UNL     1      51.491  21.207  16.668  0.00  0.00    +0.073 C 
ATOM      4  C   UNL     1      49.839  20.640  18.375  0.00  0.00    -0.057 C 
ENDBRANCH   5   4
ENDBRANCH   6   5
TORSDOF 5
ENDMDL
MODEL 5
REMARK VINA RESULT:      -5.5      2.124      6.243
REMARK  Name = ZINC95485916
REMARK  8 active torsions:
REMARK  status: ('A' for Active; 'I' for Inactive)
REMARK    1  A    between atoms: C1_1  and  C2_2
REMARK    2  A    between atoms: C2_2  and  C19_24
REMARK    3  A    between atoms: C3_3  and  C4_4
REMARK    4  A    between atoms: C4_4  and  C5_5
REMARK    5  A    between atoms: C6_6  and  O5_23
REMARK    6  A    between atoms: C8_8  and  O4_22
REMARK    7  A    between atoms: C14_15  and  O3_20
REMARK    8  A    between atoms: O3_20  and  C18_21
REMARK                            x       y       z     vdW  Elec       q    Type
REMARK                         _______ _______ _______ _____ _____    ______ ____
ROOT
ATOM      6  C   UNL     1      50.494  17.385  18.072  0.00  0.00    -0.141 A 
ATOM      7  C   UNL     1      50.825  16.079  17.745  0.00  0.00    +0.197 A 
ATOM     10  C   UNL     1      49.841  15.165  17.389  0.00  0.00    -0.055 A 
ATOM     11  C   UNL     1      48.513  15.553  17.362  0.00  0.00    +0.216 A 
ATOM     14  C   UNL     1      48.173  16.869  17.699  0.00  0.00    -0.268 A 
ATOM     15  C   UNL     1      46.767  17.312  17.701  0.00  0.00    +0.439 A 
ATOM     16  O   UNL     1      45.879  16.648  17.200  0.00  0.00    -0.424 OA
ATOM     17  C   UNL     1      46.503  18.611  18.366  0.00  0.00    -0.182 A 
ATOM     18  C   UNL     1      45.204  19.006  18.679  0.00  0.00    +0.086 A 
ATOM     19  C   UNL     1      44.993  20.222  19.303  0.00  0.00    +0.103 A 
ATOM     22  C   UNL     1      46.074  21.041  19.613  0.00  0.00    +0.002 A 
ATOM     23  C   UNL     1      47.360  20.656  19.302  0.00  0.00    +0.050 A 
ATOM     24  C   UNL     1      47.593  19.438  18.672  0.00  0.00    +0.117 A 
ATOM     25  O   UNL     1      48.855  19.070  18.366  0.00  0.00    -0.219 OA
ATOM     26  C   UNL     1      49.169  17.796  18.055  0.00  0.00    +0.197 A 
ENDROOT
BRANCH   7   8
ATOM      8  O   UNL     1      52.125  15.689  17.773  0.00  0.00    -0.483 OA
ATOM      9  H   UNL     1      52.589  15.926  18.588  0.00  0.00    +0.400 HD
ENDBRANCH   7   8
BRANCH  11  12
ATOM     12  O   UNL     1      47.549  14.665  17.012  0.00  0.00    -0.473 OA
ATOM     13  H   UNL     1      47.206  14.144  17.750  0.00  0.00    +0.401 HD
ENDBRANCH  11  12
BRANCH  19  20
ATOM     20  O   UNL     1      43.730  20.617  19.614  0.00  0.00    -0.311 OA
ATOM     21  C   UNL     1      42.689  20.226  18.716  0.00  0.00    +0.246 C 
ENDBRANCH  19  20
BRANCH   6   5
ATOM      5  C   UNL     1      51.577  18.361  18.454  0.00  0.00    +0.135 C 
BRANCH   5   4
ATOM      1  C   UNL     1      51.317  21.169  18.442  0.00  0.00    +0.077 C 
ATOM      2  C   UNL     1      51.816  20.451  17.215  0.00  0.00    -0.125 C 
ATOM      3  C   UNL     1      52.112  21.226  15.957  0.00  0.00    +0.073 C 
ATOM      4  C   UNL     1      51.992  19.153  17.241  0.00  0.00    -0.057 C 
ENDBRANCH   5   4
ENDBRANCH   6   5
TORSDOF 5
ENDMDL
MODEL 6
REMARK VINA RESULT:      -5.5      3.011      5.965
REMARK  Name = ZINC95485916
REMARK  8 active torsions:
REMARK  status: ('A' for Active; 'I' for Inactive)
REMARK    1  A    between atoms: C1_1  and  C2_2
REMARK    2  A    between atoms: C2_2  and  C19_24
REMARK    3  A    between atoms: C3_3  and  C4_4
REMARK    4  A    between atoms: C4_4  and  C5_5
REMARK    5  A    between atoms: C6_6  and  O5_23
REMARK    6  A    between atoms: C8_8  and  O4_22
REMARK    7  A    between atoms: C14_15  and  O3_20
REMARK    8  A    between atoms: O3_20  and  C18_21
REMARK                            x       y       z     vdW  Elec       q    Type
REMARK                         _______ _______ _______ _____ _____    ______ ____
ROOT
ATOM      6  C   UNL     1      50.395  19.817  18.581  0.00  0.00    -0.141 A 
ATOM      7  C   UNL     1      51.682  20.068  19.032  0.00  0.00    +0.197 A 
ATOM     10  C   UNL     1      52.663  19.086  18.962  0.00  0.00    -0.055 A 
ATOM     11  C   UNL     1      52.360  17.841  18.442  0.00  0.00    +0.216 A 
ATOM     14  C   UNL     1      51.060  17.580  17.992  0.00  0.00    -0.268 A 
ATOM     15  C   UNL     1      50.695  16.258  17.451  0.00  0.00    +0.439 A 
ATOM     16  O   UNL     1      51.533  15.426  17.157  0.00  0.00    -0.424 OA
ATOM     17  C   UNL     1      49.242  16.002  17.302  0.00  0.00    -0.182 A 
ATOM     18  C   UNL     1      48.760  14.716  17.069  0.00  0.00    +0.086 A 
ATOM     19  C   UNL     1      47.398  14.512  16.939  0.00  0.00    +0.103 A 
ATOM     22  C   UNL     1      46.521  15.587  17.040  0.00  0.00    +0.002 A 
ATOM     23  C   UNL     1      46.993  16.861  17.267  0.00  0.00    +0.050 A 
ATOM     24  C   UNL     1      48.360  17.088  17.398  0.00  0.00    +0.117 A 
ATOM     25  O   UNL     1      48.816  18.340  17.614  0.00  0.00    -0.219 OA
ATOM     26  C   UNL     1      50.067  18.574  18.059  0.00  0.00    +0.197 A 
ENDROOT
BRANCH   7   8
ATOM      8  O   UNL     1      51.987  21.286  19.548  0.00  0.00    -0.483 OA
ATOM      9  H   UNL     1      51.218  21.788  19.851  0.00  0.00    +0.400 HD
ENDBRANCH   7   8
BRANCH  11  12
ATOM     12  O   UNL     1      53.315  16.880  18.368  0.00  0.00    -0.473 OA
ATOM     13  H   UNL     1      52.967  15.979  18.343  0.00  0.00    +0.401 HD
ENDBRANCH  11  12
BRANCH  19  20
ATOM     20  O   UNL     1      46.917  13.260  16.714  0.00  0.00    -0.311 OA
ATOM     21  C   UNL     1      45.779  12.856  17.478  0.00  0.00    +0.246 C 
ENDBRANCH  19  20
BRANCH   6   5
ATOM      5  C   UNL     1      49.346  20.896  18.665  0.00  0.00    +0.135 C 
BRANCH   5   4
ATOM      1  C   UNL     1      46.527  20.849  18.704  0.00  0.00    +0.077 C 
ATOM      2  C   UNL     1      47.301  20.819  19.996  0.00  0.00    -0.125 C 
ATOM      3  C   UNL     1      46.569  20.832  21.314  0.00  0.00    +0.073 C 
ATOM      4  C   UNL     1      48.611  20.782  19.975  0.00  0.00    -0.057 C 
ENDBRANCH   5   4
ENDBRANCH   6   5
TORSDOF 5
ENDMDL
MODEL 7
REMARK VINA RESULT:      -5.4     20.173     22.401
REMARK  Name = ZINC95485916
REMARK  8 active torsions:
REMARK  status: ('A' for Active; 'I' for Inactive)
REMARK    1  A    between atoms: C1_1  and  C2_2
REMARK    2  A    between atoms: C2_2  and  C19_24
REMARK    3  A    between atoms: C3_3  and  C4_4
REMARK    4  A    between atoms: C4_4  and  C5_5
REMARK    5  A    between atoms: C6_6  and  O5_23
REMARK    6  A    between atoms: C8_8  and  O4_22
REMARK    7  A    between atoms: C14_15  and  O3_20
REMARK    8  A    between atoms: O3_20  and  C18_21
REMARK                            x       y       z     vdW  Elec       q    Type
REMARK                         _______ _______ _______ _____ _____    ______ ____
ROOT
ATOM      6  C   UNL     1      54.624  32.922   4.996  0.00  0.00    -0.141 A 
ATOM      7  C   UNL     1      54.261  33.500   6.203  0.00  0.00    +0.197 A 
ATOM     10  C   UNL     1      52.937  33.833   6.462  0.00  0.00    -0.055 A 
ATOM     11  C   UNL     1      51.964  33.593   5.508  0.00  0.00    +0.216 A 
ATOM     14  C   UNL     1      52.327  33.017   4.284  0.00  0.00    -0.268 A 
ATOM     15  C   UNL     1      51.321  32.765   3.236  0.00  0.00    +0.439 A 
ATOM     16  O   UNL     1      50.126  32.825   3.459  0.00  0.00    -0.424 OA
ATOM     17  C   UNL     1      51.858  32.450   1.891  0.00  0.00    -0.182 A 
ATOM     18  C   UNL     1      51.035  32.466   0.766  0.00  0.00    +0.086 A 
ATOM     19  C   UNL     1      51.570  32.171  -0.474  0.00  0.00    +0.103 A 
ATOM     22  C   UNL     1      52.920  31.861  -0.593  0.00  0.00    +0.002 A 
ATOM     23  C   UNL     1      53.738  31.841   0.515  0.00  0.00    +0.050 A 
ATOM     24  C   UNL     1      53.220  32.132   1.773  0.00  0.00    +0.117 A 
ATOM     25  O   UNL     1      54.025  32.105   2.855  0.00  0.00    -0.219 OA
ATOM     26  C   UNL     1      53.666  32.675   4.023  0.00  0.00    +0.197 A 
ENDROOT
BRANCH   7   8
ATOM      8  O   UNL     1      55.210  33.743   7.143  0.00  0.00    -0.483 OA
ATOM      9  H   UNL     1      55.520  34.659   7.161  0.00  0.00    +0.400 HD
ENDBRANCH   7   8
BRANCH  11  12
ATOM     12  O   UNL     1      50.670  33.913   5.756  0.00  0.00    -0.473 OA
ATOM     13  H   UNL     1      50.330  34.634   5.209  0.00  0.00    +0.401 HD
ENDBRANCH  11  12
BRANCH  19  20
ATOM     20  O   UNL     1      50.775  32.184  -1.577  0.00  0.00    -0.311 OA
ATOM     21  C   UNL     1      49.549  32.914  -1.484  0.00  0.00    +0.246 C 
ENDBRANCH  19  20
BRANCH   6   5
ATOM      5  C   UNL     1      56.066  32.568   4.737  0.00  0.00    +0.135 C 
BRANCH   5   4
ATOM      1  C   UNL     1      58.396  33.938   5.542  0.00  0.00    +0.077 C 
ATOM      2  C   UNL     1      57.732  34.280   4.233  0.00  0.00    -0.125 C 
ATOM      3  C   UNL     1      58.273  35.401   3.383  0.00  0.00    +0.073 C 
ATOM      4  C   UNL     1      56.684  33.602   3.833  0.00  0.00    -0.057 C 
ENDBRANCH   5   4
ENDBRANCH   6   5
TORSDOF 5
ENDMDL
MODEL 8
REMARK VINA RESULT:      -5.4     20.972     22.654
REMARK  Name = ZINC95485916
REMARK  8 active torsions:
REMARK  status: ('A' for Active; 'I' for Inactive)
REMARK    1  A    between atoms: C1_1  and  C2_2
REMARK    2  A    between atoms: C2_2  and  C19_24
REMARK    3  A    between atoms: C3_3  and  C4_4
REMARK    4  A    between atoms: C4_4  and  C5_5
REMARK    5  A    between atoms: C6_6  and  O5_23
REMARK    6  A    between atoms: C8_8  and  O4_22
REMARK    7  A    between atoms: C14_15  and  O3_20
REMARK    8  A    between atoms: O3_20  and  C18_21
REMARK                            x       y       z     vdW  Elec       q    Type
REMARK                         _______ _______ _______ _____ _____    ______ ____
ROOT
ATOM      6  C   UNL     1      57.056  32.029   3.647  0.00  0.00    -0.141 A 
ATOM      7  C   UNL     1      57.922  32.517   4.615  0.00  0.00    +0.197 A 
ATOM     10  C   UNL     1      57.442  33.255   5.690  0.00  0.00    -0.055 A 
ATOM     11  C   UNL     1      56.087  33.514   5.802  0.00  0.00    +0.216 A 
ATOM     14  C   UNL     1      55.210  33.030   4.824  0.00  0.00    -0.268 A 
ATOM     15  C   UNL     1      53.764  33.304   4.900  0.00  0.00    +0.439 A 
ATOM     16  O   UNL     1      53.242  33.749   5.906  0.00  0.00    -0.424 OA
ATOM     17  C   UNL     1      52.989  33.018   3.668  0.00  0.00    -0.182 A 
ATOM     18  C   UNL     1      51.685  33.486   3.515  0.00  0.00    +0.086 A 
ATOM     19  C   UNL     1      50.993  33.204   2.352  0.00  0.00    +0.103 A 
ATOM     22  C   UNL     1      51.598  32.458   1.346  0.00  0.00    +0.002 A 
ATOM     23  C   UNL     1      52.885  31.991   1.493  0.00  0.00    +0.050 A 
ATOM     24  C   UNL     1      53.599  32.261   2.657  0.00  0.00    +0.117 A 
ATOM     25  O   UNL     1      54.857  31.795   2.798  0.00  0.00    -0.219 OA
ATOM     26  C   UNL     1      55.694  32.280   3.737  0.00  0.00    +0.197 A 
ENDROOT
BRANCH   7   8
ATOM      8  O   UNL     1      59.252  32.271   4.510  0.00  0.00    -0.483 OA
ATOM      9  H   UNL     1      59.713  32.858   3.895  0.00  0.00    +0.400 HD
ENDBRANCH   7   8
BRANCH  11  12
ATOM     12  O   UNL     1      55.613  34.231   6.852  0.00  0.00    -0.473 OA
ATOM     13  H   UNL     1      56.286  34.462   7.507  0.00  0.00    +0.401 HD
ENDBRANCH  11  12
BRANCH  19  20
ATOM     20  O   UNL     1      49.720  33.656   2.192  0.00  0.00    -0.311 OA
ATOM     21  C   UNL     1      49.165  34.422   3.264  0.00  0.00    +0.246 C 
ENDBRANCH  19  20
BRANCH   6   5
ATOM      5  C   UNL     1      57.597  31.230   2.490  0.00  0.00    +0.135 C 
BRANCH   5   4
ATOM      1  C   UNL     1      58.542  29.323   0.640  0.00  0.00    +0.077 C 
ATOM      2  C   UNL     1      58.204  28.907   2.048  0.00  0.00    -0.125 C 
ATOM      3  C   UNL     1      58.306  27.459   2.452  0.00  0.00    +0.073 C 
ATOM      4  C   UNL     1      57.821  29.805   2.923  0.00  0.00    -0.057 C 
ENDBRANCH   5   4
ENDBRANCH   6   5
TORSDOF 5
ENDMDL
MODEL 9
REMARK VINA RESULT:      -5.3      3.297      5.398
REMARK  Name = ZINC95485916
REMARK  8 active torsions:
REMARK  status: ('A' for Active; 'I' for Inactive)
REMARK    1  A    between atoms: C1_1  and  C2_2
REMARK    2  A    between atoms: C2_2  and  C19_24
REMARK    3  A    between atoms: C3_3  and  C4_4
REMARK    4  A    between atoms: C4_4  and  C5_5
REMARK    5  A    between atoms: C6_6  and  O5_23
REMARK    6  A    between atoms: C8_8  and  O4_22
REMARK    7  A    between atoms: C14_15  and  O3_20
REMARK    8  A    between atoms: O3_20  and  C18_21
REMARK                            x       y       z     vdW  Elec       q    Type
REMARK                         _______ _______ _______ _____ _____    ______ ____
ROOT
ATOM      6  C   UNL     1      47.762  15.881  17.136  0.00  0.00    -0.141 A 
ATOM      7  C   UNL     1      47.912  14.622  16.573  0.00  0.00    +0.197 A 
ATOM     10  C   UNL     1      49.161  14.014  16.518  0.00  0.00    -0.055 A 
ATOM     11  C   UNL     1      50.271  14.665  17.025  0.00  0.00    +0.216 A 
ATOM     14  C   UNL     1      50.125  15.938  17.588  0.00  0.00    -0.268 A 
ATOM     15  C   UNL     1      51.289  16.671  18.120  0.00  0.00    +0.439 A 
ATOM     16  O   UNL     1      52.363  16.130  18.305  0.00  0.00    -0.424 OA
ATOM     17  C   UNL     1      51.071  18.110  18.398  0.00  0.00    -0.182 A 
ATOM     18  C   UNL     1      52.145  18.967  18.635  0.00  0.00    +0.086 A 
ATOM     19  C   UNL     1      51.906  20.305  18.888  0.00  0.00    +0.103 A 
ATOM     22  C   UNL     1      50.601  20.788  18.905  0.00  0.00    +0.002 A 
ATOM     23  C   UNL     1      49.536  19.945  18.675  0.00  0.00    +0.050 A 
ATOM     24  C   UNL     1      49.755  18.594  18.421  0.00  0.00    +0.117 A 
ATOM     25  O   UNL     1      48.707  17.773  18.203  0.00  0.00    -0.219 OA
ATOM     26  C   UNL     1      48.862  16.554  17.648  0.00  0.00    +0.197 A 
ENDROOT
BRANCH   7   8
ATOM      8  O   UNL     1      46.829  13.979  16.069  0.00  0.00    -0.483 OA
ATOM      9  H   UNL     1      46.018  14.116  16.577  0.00  0.00    +0.400 HD
ENDBRANCH   7   8
BRANCH  11  12
ATOM     12  O   UNL     1      51.491  14.073  16.977  0.00  0.00    -0.473 OA
ATOM     13  H   UNL     1      51.464  13.130  16.766  0.00  0.00    +0.401 HD
ENDBRANCH  11  12
BRANCH  19  20
ATOM     20  O   UNL     1      52.947  21.149  19.119  0.00  0.00    -0.311 OA
ATOM     21  C   UNL     1      52.843  22.010  20.255  0.00  0.00    +0.246 C 
ENDBRANCH  19  20
BRANCH   6   5
ATOM      5  C   UNL     1      46.399  16.522  17.187  0.00  0.00    +0.135 C 
BRANCH   5   4
ATOM      1  C   UNL     1      45.276  18.681  18.612  0.00  0.00    +0.077 C 
ATOM      2  C   UNL     1      45.316  17.307  19.229  0.00  0.00    -0.125 C 
ATOM      3  C   UNL     1      44.818  17.097  20.636  0.00  0.00    +0.073 C 
ATOM      4  C   UNL     1      45.785  16.293  18.543  0.00  0.00    -0.057 C 
ENDBRANCH   5   4
ENDBRANCH   6   5
TORSDOF 5
ENDMDL
