MODEL 1
REMARK VINA RESULT:      -6.2      0.000      0.000
REMARK  Name = ZINC95486124
REMARK  16 active torsions:
REMARK  status: ('A' for Active; 'I' for Inactive)
REMARK    1  A    between atoms: C1_1  and  O1_2
REMARK    2  A    between atoms: O1_2  and  C2_3
REMARK    3  A    between atoms: C5_7  and  O11_37
REMARK    4  A    between atoms: C7_9  and  O5_21
REMARK    5  A    between atoms: C10_13  and  C11_14
REMARK    6  A    between atoms: C14_17  and  O4_20
REMARK    7  A    between atoms: O5_21  and  C17_22
REMARK    8  A    between atoms: C17_22  and  C18_23
REMARK    9  A    between atoms: C18_23  and  C19_25
REMARK   10  A    between atoms: C18_23  and  O10_36
REMARK   11  A    between atoms: C19_25  and  C20_27
REMARK   12  A    between atoms: C19_25  and  O9_35
REMARK   13  A    between atoms: C20_27  and  C21_29
REMARK   14  A    between atoms: C20_27  and  O8_34
REMARK   15  A    between atoms: C21_29  and  C22_31
REMARK   16  A    between atoms: C21_29  and  O7_33
REMARK                            x       y       z     vdW  Elec       q    Type
REMARK                         _______ _______ _______ _____ _____    ______ ____
ROOT
ATOM      3  C   UNL     1      49.565  17.347  19.745  0.00  0.00    -0.079 A 
ATOM      4  C   UNL     1      48.690  16.583  20.558  0.00  0.00    +0.409 A 
ATOM      5  C   UNL     1      47.257  16.915  20.512  0.00  0.00    -0.289 A 
ATOM      6  C   UNL     1      46.322  16.211  21.283  0.00  0.00    +0.246 A 
ATOM      9  C   UNL     1      44.985  16.554  21.211  0.00  0.00    -0.120 A 
ATOM     10  C   UNL     1      44.573  17.590  20.379  0.00  0.00    +0.214 A 
ATOM     27  C   UNL     1      45.491  18.290  19.614  0.00  0.00    -0.032 A 
ATOM     28  C   UNL     1      46.838  17.962  19.672  0.00  0.00    +0.204 A 
ATOM     29  O   UNL     1      47.745  18.635  18.934  0.00  0.00    -0.203 OA
ATOM     30  O   UNL     1      49.110  15.684  21.270  0.00  0.00    -0.444 OA
ATOM     31  C   UNL     1      49.057  18.347  18.969  0.00  0.00    +0.177 A 
ENDROOT
BRANCH  31  32
ATOM     32  C   UNL     1      49.981  19.136  18.134  0.00  0.00    -0.078 A 
ATOM     33  C   UNL     1      50.576  18.558  17.009  0.00  0.00    +0.074 A 
ATOM     34  C   UNL     1      51.438  19.299  16.231  0.00  0.00    -0.014 A 
ATOM     35  C   UNL     1      51.716  20.619  16.562  0.00  0.00    +0.134 A 
ATOM     38  C   UNL     1      51.126  21.198  17.679  0.00  0.00    -0.012 A 
ATOM     39  C   UNL     1      50.259  20.466  18.461  0.00  0.00    +0.100 A 
BRANCH  35  36
ATOM     36  O   UNL     1      52.567  21.346  15.793  0.00  0.00    -0.498 OA
ATOM     37  H   UNL     1      53.418  21.528  16.212  0.00  0.00    +0.397 HD
ENDBRANCH  35  36
ENDBRANCH  31  32
BRANCH   3   2
ATOM      1  C   UNL     1      51.683  17.720  20.761  0.00  0.00    +0.230 C 
ATOM      2  O   UNL     1      50.902  17.091  19.744  0.00  0.00    -0.297 OA
ENDBRANCH   3   2
BRANCH   6   7
ATOM      7  O   UNL     1      46.727  15.201  22.093  0.00  0.00    -0.474 OA
ATOM      8  H   UNL     1      46.799  15.449  23.025  0.00  0.00    +0.405 HD
ENDBRANCH   6   7
BRANCH  10  11
ATOM     11  O   UNL     1      43.257  17.918  20.316  0.00  0.00    -0.290 OA
BRANCH  11  12
ATOM     12  C   UNL     1      42.899  19.246  20.707  0.00  0.00    +0.184 C 
BRANCH  12  13
ATOM     13  C   UNL     1      41.970  19.853  19.655  0.00  0.00    +0.205 C 
BRANCH  13  14
ATOM     14  O   UNL     1      40.774  20.317  20.285  0.00  0.00    -0.539 OA
ATOM     15  H   UNL     1      40.926  20.810  21.102  0.00  0.00    +0.376 HD
ENDBRANCH  13  14
BRANCH  13  16
ATOM     16  C   UNL     1      42.674  21.028  18.971  0.00  0.00    +0.171 C 
BRANCH  16  17
ATOM     17  O   UNL     1      41.702  21.993  18.562  0.00  0.00    -0.528 OA
ATOM     18  H   UNL     1      41.489  21.962  17.619  0.00  0.00    +0.372 HD
ENDBRANCH  16  17
BRANCH  16  19
ATOM     19  C   UNL     1      43.654  21.676  19.951  0.00  0.00    +0.187 C 
BRANCH  19  20
ATOM     20  O   UNL     1      43.172  22.969  20.322  0.00  0.00    -0.544 OA
ATOM     21  H   UNL     1      43.553  23.310  21.142  0.00  0.00    +0.371 HD
ENDBRANCH  19  20
BRANCH  19  22
ATOM     22  C   UNL     1      45.024  21.815  19.284  0.00  0.00    +0.150 C 
BRANCH  22  23
ATOM     23  O   UNL     1      45.056  23.013  18.506  0.00  0.00    -0.521 OA
ATOM     24  H   UNL     1      45.129  22.861  17.553  0.00  0.00    +0.372 HD
ENDBRANCH  22  23
BRANCH  22  25
ATOM     25  C   UNL     1      46.095  21.876  20.344  0.00  0.00    +0.425 C 
ATOM     26  O   UNL     1      46.113  22.790  21.131  0.00  0.00    -0.441 OA
ENDBRANCH  22  25
ENDBRANCH  19  22
ENDBRANCH  16  19
ENDBRANCH  13  16
ENDBRANCH  12  13
ENDBRANCH  11  12
ENDBRANCH  10  11
TORSDOF 15
ENDMDL
MODEL 2
REMARK VINA RESULT:      -6.2      1.723      2.174
REMARK  Name = ZINC95486124
REMARK  16 active torsions:
REMARK  status: ('A' for Active; 'I' for Inactive)
REMARK    1  A    between atoms: C1_1  and  O1_2
REMARK    2  A    between atoms: O1_2  and  C2_3
REMARK    3  A    between atoms: C5_7  and  O11_37
REMARK    4  A    between atoms: C7_9  and  O5_21
REMARK    5  A    between atoms: C10_13  and  C11_14
REMARK    6  A    between atoms: C14_17  and  O4_20
REMARK    7  A    between atoms: O5_21  and  C17_22
REMARK    8  A    between atoms: C17_22  and  C18_23
REMARK    9  A    between atoms: C18_23  and  C19_25
REMARK   10  A    between atoms: C18_23  and  O10_36
REMARK   11  A    between atoms: C19_25  and  C20_27
REMARK   12  A    between atoms: C19_25  and  O9_35
REMARK   13  A    between atoms: C20_27  and  C21_29
REMARK   14  A    between atoms: C20_27  and  O8_34
REMARK   15  A    between atoms: C21_29  and  C22_31
REMARK   16  A    between atoms: C21_29  and  O7_33
REMARK                            x       y       z     vdW  Elec       q    Type
REMARK                         _______ _______ _______ _____ _____    ______ ____
ROOT
ATOM      3  C   UNL     1      49.673  17.336  18.887  0.00  0.00    -0.079 A 
ATOM      4  C   UNL     1      48.688  16.322  18.778  0.00  0.00    +0.409 A 
ATOM      5  C   UNL     1      47.373  16.585  19.386  0.00  0.00    -0.289 A 
ATOM      6  C   UNL     1      46.342  15.639  19.325  0.00  0.00    +0.246 A 
ATOM      9  C   UNL     1      45.121  15.925  19.910  0.00  0.00    -0.120 A 
ATOM     10  C   UNL     1      44.921  17.143  20.550  0.00  0.00    +0.214 A 
ATOM     27  C   UNL     1      45.937  18.083  20.614  0.00  0.00    -0.032 A 
ATOM     28  C   UNL     1      47.168  17.816  20.035  0.00  0.00    +0.204 A 
ATOM     29  O   UNL     1      48.168  18.721  20.089  0.00  0.00    -0.203 OA
ATOM     30  O   UNL     1      48.921  15.271  18.203  0.00  0.00    -0.444 OA
ATOM     31  C   UNL     1      49.374  18.493  19.544  0.00  0.00    +0.177 A 
ENDROOT
BRANCH  31  32
ATOM     32  C   UNL     1      50.412  19.535  19.653  0.00  0.00    -0.078 A 
ATOM     33  C   UNL     1      51.273  19.554  20.754  0.00  0.00    +0.074 A 
ATOM     34  C   UNL     1      52.242  20.528  20.852  0.00  0.00    -0.014 A 
ATOM     35  C   UNL     1      52.364  21.492  19.858  0.00  0.00    +0.134 A 
ATOM     38  C   UNL     1      51.510  21.477  18.761  0.00  0.00    -0.012 A 
ATOM     39  C   UNL     1      50.541  20.503  18.653  0.00  0.00    +0.100 A 
BRANCH  35  36
ATOM     36  O   UNL     1      53.320  22.451  19.959  0.00  0.00    -0.498 OA
ATOM     37  H   UNL     1      53.397  22.839  20.841  0.00  0.00    +0.397 HD
ENDBRANCH  35  36
ENDBRANCH  31  32
BRANCH   3   2
ATOM      1  C   UNL     1      51.041  17.373  16.942  0.00  0.00    +0.230 C 
ATOM      2  O   UNL     1      50.909  17.153  18.348  0.00  0.00    -0.297 OA
ENDBRANCH   3   2
BRANCH   6   7
ATOM      7  O   UNL     1      46.539  14.451  18.700  0.00  0.00    -0.474 OA
ATOM      8  H   UNL     1      45.947  13.747  18.996  0.00  0.00    +0.405 HD
ENDBRANCH   6   7
BRANCH  10  11
ATOM     11  O   UNL     1      43.718  17.413  21.120  0.00  0.00    -0.290 OA
BRANCH  11  12
ATOM     12  C   UNL     1      43.362  18.790  21.262  0.00  0.00    +0.184 C 
BRANCH  12  13
ATOM     13  C   UNL     1      42.467  19.208  20.094  0.00  0.00    +0.205 C 
BRANCH  13  14
ATOM     14  O   UNL     1      41.290  19.841  20.598  0.00  0.00    -0.539 OA
ATOM     15  H   UNL     1      41.367  20.144  21.513  0.00  0.00    +0.376 HD
ENDBRANCH  13  14
BRANCH  13  16
ATOM     16  C   UNL     1      43.226  20.185  19.194  0.00  0.00    +0.171 C 
BRANCH  16  17
ATOM     17  O   UNL     1      42.538  20.320  17.949  0.00  0.00    -0.528 OA
ATOM     18  H   UNL     1      42.225  21.217  17.768  0.00  0.00    +0.372 HD
ENDBRANCH  16  17
BRANCH  16  19
ATOM     19  C   UNL     1      43.310  21.551  19.880  0.00  0.00    +0.187 C 
BRANCH  19  20
ATOM     20  O   UNL     1      42.405  22.458  19.248  0.00  0.00    -0.544 OA
ATOM     21  H   UNL     1      41.542  22.516  19.679  0.00  0.00    +0.371 HD
ENDBRANCH  19  20
BRANCH  19  22
ATOM     22  C   UNL     1      44.736  22.092  19.767  0.00  0.00    +0.150 C 
BRANCH  22  23
ATOM     23  O   UNL     1      45.301  21.690  18.517  0.00  0.00    -0.521 OA
ATOM     24  H   UNL     1      44.839  22.045  17.745  0.00  0.00    +0.372 HD
ENDBRANCH  22  23
BRANCH  22  25
ATOM     25  C   UNL     1      44.710  23.597  19.846  0.00  0.00    +0.425 C 
ATOM     26  O   UNL     1      44.643  24.253  18.835  0.00  0.00    -0.441 OA
ENDBRANCH  22  25
ENDBRANCH  19  22
ENDBRANCH  16  19
ENDBRANCH  13  16
ENDBRANCH  12  13
ENDBRANCH  11  12
ENDBRANCH  10  11
TORSDOF 15
ENDMDL
MODEL 3
REMARK VINA RESULT:      -6.2      4.490      8.547
REMARK  Name = ZINC95486124
REMARK  16 active torsions:
REMARK  status: ('A' for Active; 'I' for Inactive)
REMARK    1  A    between atoms: C1_1  and  O1_2
REMARK    2  A    between atoms: O1_2  and  C2_3
REMARK    3  A    between atoms: C5_7  and  O11_37
REMARK    4  A    between atoms: C7_9  and  O5_21
REMARK    5  A    between atoms: C10_13  and  C11_14
REMARK    6  A    between atoms: C14_17  and  O4_20
REMARK    7  A    between atoms: O5_21  and  C17_22
REMARK    8  A    between atoms: C17_22  and  C18_23
REMARK    9  A    between atoms: C18_23  and  C19_25
REMARK   10  A    between atoms: C18_23  and  O10_36
REMARK   11  A    between atoms: C19_25  and  C20_27
REMARK   12  A    between atoms: C19_25  and  O9_35
REMARK   13  A    between atoms: C20_27  and  C21_29
REMARK   14  A    between atoms: C20_27  and  O8_34
REMARK   15  A    between atoms: C21_29  and  C22_31
REMARK   16  A    between atoms: C21_29  and  O7_33
REMARK                            x       y       z     vdW  Elec       q    Type
REMARK                         _______ _______ _______ _____ _____    ______ ____
ROOT
ATOM      3  C   UNL     1      43.661  18.137  21.112  0.00  0.00    -0.079 A 
ATOM      4  C   UNL     1      44.068  16.808  21.394  0.00  0.00    +0.409 A 
ATOM      5  C   UNL     1      44.962  16.152  20.426  0.00  0.00    -0.289 A 
ATOM      6  C   UNL     1      45.413  14.841  20.625  0.00  0.00    +0.246 A 
ATOM      9  C   UNL     1      46.251  14.260  19.691  0.00  0.00    -0.120 A 
ATOM     10  C   UNL     1      46.643  14.975  18.564  0.00  0.00    +0.214 A 
ATOM     27  C   UNL     1      46.201  16.272  18.360  0.00  0.00    -0.032 A 
ATOM     28  C   UNL     1      45.359  16.872  19.285  0.00  0.00    +0.204 A 
ATOM     29  O   UNL     1      44.919  18.134  19.101  0.00  0.00    -0.203 OA
ATOM     30  O   UNL     1      43.692  16.229  22.401  0.00  0.00    -0.444 OA
ATOM     31  C   UNL     1      44.099  18.744  19.973  0.00  0.00    +0.177 A 
ENDROOT
BRANCH  31  32
ATOM     32  C   UNL     1      43.661  20.124  19.692  0.00  0.00    -0.078 A 
ATOM     33  C   UNL     1      44.463  21.205  20.071  0.00  0.00    +0.074 A 
ATOM     34  C   UNL     1      44.051  22.492  19.806  0.00  0.00    -0.014 A 
ATOM     35  C   UNL     1      42.841  22.718  19.162  0.00  0.00    +0.134 A 
ATOM     38  C   UNL     1      42.041  21.647  18.782  0.00  0.00    -0.012 A 
ATOM     39  C   UNL     1      42.447  20.355  19.040  0.00  0.00    +0.100 A 
BRANCH  35  36
ATOM     36  O   UNL     1      42.439  23.989  18.903  0.00  0.00    -0.498 OA
ATOM     37  H   UNL     1      43.155  24.583  18.643  0.00  0.00    +0.397 HD
ENDBRANCH  35  36
ENDBRANCH  31  32
BRANCH   3   2
ATOM      1  C   UNL     1      41.429  18.633  21.767  0.00  0.00    +0.230 C 
ATOM      2  O   UNL     1      42.834  18.798  21.967  0.00  0.00    -0.297 OA
ENDBRANCH   3   2
BRANCH   6   7
ATOM      7  O   UNL     1      45.030  14.146  21.725  0.00  0.00    -0.474 OA
ATOM      8  H   UNL     1      45.481  14.413  22.537  0.00  0.00    +0.405 HD
ENDBRANCH   6   7
BRANCH  10  11
ATOM     11  O   UNL     1      47.467  14.395  17.653  0.00  0.00    -0.290 OA
BRANCH  11  12
ATOM     12  C   UNL     1      46.874  13.952  16.431  0.00  0.00    +0.184 C 
BRANCH  12  13
ATOM     13  C   UNL     1      46.625  12.444  16.503  0.00  0.00    +0.205 C 
BRANCH  13  14
ATOM     14  O   UNL     1      45.220  12.190  16.473  0.00  0.00    -0.539 OA
ATOM     15  H   UNL     1      44.747  12.503  17.257  0.00  0.00    +0.376 HD
ENDBRANCH  13  14
BRANCH  13  16
ATOM     16  C   UNL     1      47.292  11.761  15.307  0.00  0.00    +0.171 C 
BRANCH  16  17
ATOM     17  O   UNL     1      46.286  11.250  14.429  0.00  0.00    -0.528 OA
ATOM     18  H   UNL     1      45.396  11.580  14.616  0.00  0.00    +0.372 HD
ENDBRANCH  16  17
BRANCH  16  19
ATOM     19  C   UNL     1      48.156  12.775  14.555  0.00  0.00    +0.187 C 
BRANCH  19  20
ATOM     20  O   UNL     1      47.599  13.009  13.260  0.00  0.00    -0.544 OA
ATOM     21  H   UNL     1      48.232  13.353  12.616  0.00  0.00    +0.371 HD
ENDBRANCH  19  20
BRANCH  19  22
ATOM     22  C   UNL     1      49.576  12.225  14.407  0.00  0.00    +0.150 C 
BRANCH  22  23
ATOM     23  O   UNL     1      49.517  10.852  14.015  0.00  0.00    -0.521 OA
ATOM     24  H   UNL     1      48.619  10.495  13.969  0.00  0.00    +0.372 HD
ENDBRANCH  22  23
BRANCH  22  25
ATOM     25  C   UNL     1      50.314  13.016  13.358  0.00  0.00    +0.425 C 
ATOM     26  O   UNL     1      50.583  12.507  12.297  0.00  0.00    -0.441 OA
ENDBRANCH  22  25
ENDBRANCH  19  22
ENDBRANCH  16  19
ENDBRANCH  13  16
ENDBRANCH  12  13
ENDBRANCH  11  12
ENDBRANCH  10  11
TORSDOF 15
ENDMDL
MODEL 4
REMARK VINA RESULT:      -6.1      4.248      8.707
REMARK  Name = ZINC95486124
REMARK  16 active torsions:
REMARK  status: ('A' for Active; 'I' for Inactive)
REMARK    1  A    between atoms: C1_1  and  O1_2
REMARK    2  A    between atoms: O1_2  and  C2_3
REMARK    3  A    between atoms: C5_7  and  O11_37
REMARK    4  A    between atoms: C7_9  and  O5_21
REMARK    5  A    between atoms: C10_13  and  C11_14
REMARK    6  A    between atoms: C14_17  and  O4_20
REMARK    7  A    between atoms: O5_21  and  C17_22
REMARK    8  A    between atoms: C17_22  and  C18_23
REMARK    9  A    between atoms: C18_23  and  C19_25
REMARK   10  A    between atoms: C18_23  and  O10_36
REMARK   11  A    between atoms: C19_25  and  C20_27
REMARK   12  A    between atoms: C19_25  and  O9_35
REMARK   13  A    between atoms: C20_27  and  C21_29
REMARK   14  A    between atoms: C20_27  and  O8_34
REMARK   15  A    between atoms: C21_29  and  C22_31
REMARK   16  A    between atoms: C21_29  and  O7_33
REMARK                            x       y       z     vdW  Elec       q    Type
REMARK                         _______ _______ _______ _____ _____    ______ ____
ROOT
ATOM      3  C   UNL     1      44.792  19.977  20.757  0.00  0.00    -0.079 A 
ATOM      4  C   UNL     1      46.072  19.413  20.990  0.00  0.00    +0.409 A 
ATOM      5  C   UNL     1      46.645  18.572  19.927  0.00  0.00    -0.289 A 
ATOM      6  C   UNL     1      47.904  17.974  20.072  0.00  0.00    +0.246 A 
ATOM      9  C   UNL     1      48.408  17.190  19.051  0.00  0.00    -0.120 A 
ATOM     10  C   UNL     1      47.669  16.999  17.888  0.00  0.00    +0.214 A 
ATOM     27  C   UNL     1      46.423  17.586  17.737  0.00  0.00    -0.032 A 
ATOM     28  C   UNL     1      45.900  18.376  18.750  0.00  0.00    +0.204 A 
ATOM     29  O   UNL     1      44.688  18.954  18.619  0.00  0.00    -0.203 OA
ATOM     30  O   UNL     1      46.674  19.616  22.032  0.00  0.00    -0.444 OA
ATOM     31  C   UNL     1      44.149  19.720  19.582  0.00  0.00    +0.177 A 
ENDROOT
BRANCH  31  32
ATOM     32  C   UNL     1      42.817  20.311  19.358  0.00  0.00    -0.078 A 
ATOM     33  C   UNL     1      41.666  19.548  19.580  0.00  0.00    +0.074 A 
ATOM     34  C   UNL     1      40.423  20.103  19.370  0.00  0.00    -0.014 A 
ATOM     35  C   UNL     1      40.311  21.420  18.940  0.00  0.00    +0.134 A 
ATOM     38  C   UNL     1      41.453  22.182  18.719  0.00  0.00    -0.012 A 
ATOM     39  C   UNL     1      42.700  21.636  18.931  0.00  0.00    +0.100 A 
BRANCH  35  36
ATOM     36  O   UNL     1      39.084  21.963  18.735  0.00  0.00    -0.498 OA
ATOM     37  H   UNL     1      39.045  22.917  18.891  0.00  0.00    +0.397 HD
ENDBRANCH  35  36
ENDBRANCH  31  32
BRANCH   3   2
ATOM      1  C   UNL     1      44.768  22.061  21.903  0.00  0.00    +0.230 C 
ATOM      2  O   UNL     1      44.206  20.763  21.701  0.00  0.00    -0.297 OA
ENDBRANCH   3   2
BRANCH   6   7
ATOM      7  O   UNL     1      48.623  18.163  21.208  0.00  0.00    -0.474 OA
ATOM      8  H   UNL     1      48.638  17.396  21.796  0.00  0.00    +0.405 HD
ENDBRANCH   6   7
BRANCH  10  11
ATOM     11  O   UNL     1      48.174  16.228  16.890  0.00  0.00    -0.290 OA
BRANCH  11  12
ATOM     12  C   UNL     1      48.257  14.822  17.136  0.00  0.00    +0.184 C 
BRANCH  12  13
ATOM     13  C   UNL     1      47.087  14.115  16.449  0.00  0.00    +0.205 C 
BRANCH  13  14
ATOM     14  O   UNL     1      46.598  14.929  15.381  0.00  0.00    -0.539 OA
ATOM     15  H   UNL     1      45.842  14.550  14.912  0.00  0.00    +0.376 HD
ENDBRANCH  13  14
BRANCH  13  16
ATOM     16  C   UNL     1      47.561  12.772  15.890  0.00  0.00    +0.171 C 
BRANCH  16  17
ATOM     17  O   UNL     1      46.428  11.970  15.552  0.00  0.00    -0.528 OA
ATOM     18  H   UNL     1      46.044  12.175  14.688  0.00  0.00    +0.372 HD
ENDBRANCH  16  17
BRANCH  16  19
ATOM     19  C   UNL     1      48.408  13.011  14.637  0.00  0.00    +0.187 C 
BRANCH  19  20
ATOM     20  O   UNL     1      47.577  12.926  13.477  0.00  0.00    -0.544 OA
ATOM     21  H   UNL     1      48.066  12.927  12.643  0.00  0.00    +0.371 HD
ENDBRANCH  19  20
BRANCH  19  22
ATOM     22  C   UNL     1      49.507  11.950  14.556  0.00  0.00    +0.150 C 
BRANCH  22  23
ATOM     23  O   UNL     1      48.929  10.688  14.222  0.00  0.00    -0.521 OA
ATOM     24  H   UNL     1      48.518  10.233  14.971  0.00  0.00    +0.372 HD
ENDBRANCH  22  23
BRANCH  22  25
ATOM     25  C   UNL     1      50.505  12.341  13.495  0.00  0.00    +0.425 C 
ATOM     26  O   UNL     1      50.156  13.023  12.561  0.00  0.00    -0.441 OA
ENDBRANCH  22  25
ENDBRANCH  19  22
ENDBRANCH  16  19
ENDBRANCH  13  16
ENDBRANCH  12  13
ENDBRANCH  11  12
ENDBRANCH  10  11
TORSDOF 15
ENDMDL
MODEL 5
REMARK VINA RESULT:      -6.1      3.918      5.296
REMARK  Name = ZINC95486124
REMARK  16 active torsions:
REMARK  status: ('A' for Active; 'I' for Inactive)
REMARK    1  A    between atoms: C1_1  and  O1_2
REMARK    2  A    between atoms: O1_2  and  C2_3
REMARK    3  A    between atoms: C5_7  and  O11_37
REMARK    4  A    between atoms: C7_9  and  O5_21
REMARK    5  A    between atoms: C10_13  and  C11_14
REMARK    6  A    between atoms: C14_17  and  O4_20
REMARK    7  A    between atoms: O5_21  and  C17_22
REMARK    8  A    between atoms: C17_22  and  C18_23
REMARK    9  A    between atoms: C18_23  and  C19_25
REMARK   10  A    between atoms: C18_23  and  O10_36
REMARK   11  A    between atoms: C19_25  and  C20_27
REMARK   12  A    between atoms: C19_25  and  O9_35
REMARK   13  A    between atoms: C20_27  and  C21_29
REMARK   14  A    between atoms: C20_27  and  O8_34
REMARK   15  A    between atoms: C21_29  and  C22_31
REMARK   16  A    between atoms: C21_29  and  O7_33
REMARK                            x       y       z     vdW  Elec       q    Type
REMARK                         _______ _______ _______ _____ _____    ______ ____
ROOT
ATOM      3  C   UNL     1      47.441  13.344  17.717  0.00  0.00    -0.079 A 
ATOM      4  C   UNL     1      46.505  13.945  18.598  0.00  0.00    +0.409 A 
ATOM      5  C   UNL     1      46.350  15.407  18.527  0.00  0.00    -0.289 A 
ATOM      6  C   UNL     1      45.448  16.083  19.359  0.00  0.00    +0.246 A 
ATOM      9  C   UNL     1      45.332  17.457  19.262  0.00  0.00    -0.120 A 
ATOM     10  C   UNL     1      46.103  18.160  18.343  0.00  0.00    +0.214 A 
ATOM     27  C   UNL     1      46.997  17.499  17.517  0.00  0.00    -0.032 A 
ATOM     28  C   UNL     1      47.129  16.121  17.599  0.00  0.00    +0.204 A 
ATOM     29  O   UNL     1      47.995  15.461  16.802  0.00  0.00    -0.203 OA
ATOM     30  O   UNL     1      45.855  13.276  19.385  0.00  0.00    -0.444 OA
ATOM     31  C   UNL     1      48.152  14.128  16.858  0.00  0.00    +0.177 A 
ENDROOT
BRANCH  31  32
ATOM     32  C   UNL     1      49.125  13.488  15.954  0.00  0.00    -0.078 A 
ATOM     33  C   UNL     1      50.469  13.389  16.326  0.00  0.00    +0.074 A 
ATOM     34  C   UNL     1      51.374  12.790  15.478  0.00  0.00    -0.014 A 
ATOM     35  C   UNL     1      50.954  12.284  14.255  0.00  0.00    +0.134 A 
ATOM     38  C   UNL     1      49.618  12.379  13.880  0.00  0.00    -0.012 A 
ATOM     39  C   UNL     1      48.705  12.973  14.724  0.00  0.00    +0.100 A 
BRANCH  35  36
ATOM     36  O   UNL     1      51.849  11.694  13.422  0.00  0.00    -0.498 OA
ATOM     37  H   UNL     1      52.754  11.683  13.761  0.00  0.00    +0.397 HD
ENDBRANCH  35  36
ENDBRANCH  31  32
BRANCH   3   2
ATOM      1  C   UNL     1      46.631  11.191  17.111  0.00  0.00    +0.230 C 
ATOM      2  O   UNL     1      47.633  11.997  17.734  0.00  0.00    -0.297 OA
ENDBRANCH   3   2
BRANCH   6   7
ATOM      7  O   UNL     1      44.696  15.394  20.255  0.00  0.00    -0.474 OA
ATOM      8  H   UNL     1      45.013  15.457  21.166  0.00  0.00    +0.405 HD
ENDBRANCH   6   7
BRANCH  10  11
ATOM     11  O   UNL     1      45.980  19.510  18.256  0.00  0.00    -0.290 OA
BRANCH  11  12
ATOM     12  C   UNL     1      46.466  20.279  19.359  0.00  0.00    +0.184 C 
BRANCH  12  13
ATOM     13  C   UNL     1      45.468  21.391  19.683  0.00  0.00    +0.205 C 
BRANCH  13  14
ATOM     14  O   UNL     1      45.194  22.147  18.502  0.00  0.00    -0.539 OA
ATOM     15  H   UNL     1      45.905  22.124  17.847  0.00  0.00    +0.376 HD
ENDBRANCH  13  14
BRANCH  13  16
ATOM     16  C   UNL     1      44.168  20.774  20.205  0.00  0.00    +0.171 C 
BRANCH  16  17
ATOM     17  O   UNL     1      43.872  21.307  21.497  0.00  0.00    -0.528 OA
ATOM     18  H   UNL     1      43.338  20.721  22.051  0.00  0.00    +0.372 HD
ENDBRANCH  16  17
BRANCH  16  19
ATOM     19  C   UNL     1      43.024  21.104  19.243  0.00  0.00    +0.187 C 
BRANCH  19  20
ATOM     20  O   UNL     1      42.416  22.337  19.633  0.00  0.00    -0.544 OA
ATOM     21  H   UNL     1      41.654  22.232  20.218  0.00  0.00    +0.371 HD
ENDBRANCH  19  20
BRANCH  19  22
ATOM     22  C   UNL     1      41.982  19.985  19.287  0.00  0.00    +0.150 C 
BRANCH  22  23
ATOM     23  O   UNL     1      41.464  19.868  20.613  0.00  0.00    -0.521 OA
ATOM     24  H   UNL     1      40.506  19.739  20.651  0.00  0.00    +0.372 HD
ENDBRANCH  22  23
BRANCH  22  25
ATOM     25  C   UNL     1      40.859  20.307  18.335  0.00  0.00    +0.425 C 
ATOM     26  O   UNL     1      40.029  21.129  18.638  0.00  0.00    -0.441 OA
ENDBRANCH  22  25
ENDBRANCH  19  22
ENDBRANCH  16  19
ENDBRANCH  13  16
ENDBRANCH  12  13
ENDBRANCH  11  12
ENDBRANCH  10  11
TORSDOF 15
ENDMDL
MODEL 6
REMARK VINA RESULT:      -6.1      2.068      2.512
REMARK  Name = ZINC95486124
REMARK  16 active torsions:
REMARK  status: ('A' for Active; 'I' for Inactive)
REMARK    1  A    between atoms: C1_1  and  O1_2
REMARK    2  A    between atoms: O1_2  and  C2_3
REMARK    3  A    between atoms: C5_7  and  O11_37
REMARK    4  A    between atoms: C7_9  and  O5_21
REMARK    5  A    between atoms: C10_13  and  C11_14
REMARK    6  A    between atoms: C14_17  and  O4_20
REMARK    7  A    between atoms: O5_21  and  C17_22
REMARK    8  A    between atoms: C17_22  and  C18_23
REMARK    9  A    between atoms: C18_23  and  C19_25
REMARK   10  A    between atoms: C18_23  and  O10_36
REMARK   11  A    between atoms: C19_25  and  C20_27
REMARK   12  A    between atoms: C19_25  and  O9_35
REMARK   13  A    between atoms: C20_27  and  C21_29
REMARK   14  A    between atoms: C20_27  and  O8_34
REMARK   15  A    between atoms: C21_29  and  C22_31
REMARK   16  A    between atoms: C21_29  and  O7_33
REMARK                            x       y       z     vdW  Elec       q    Type
REMARK                         _______ _______ _______ _____ _____    ______ ____
ROOT
ATOM      3  C   UNL     1      49.790  17.354  18.283  0.00  0.00    -0.079 A 
ATOM      4  C   UNL     1      48.857  16.309  18.063  0.00  0.00    +0.409 A 
ATOM      5  C   UNL     1      47.603  16.347  18.832  0.00  0.00    -0.289 A 
ATOM      6  C   UNL     1      46.625  15.355  18.678  0.00  0.00    +0.246 A 
ATOM      9  C   UNL     1      45.460  15.426  19.420  0.00  0.00    -0.120 A 
ATOM     10  C   UNL     1      45.262  16.476  20.310  0.00  0.00    +0.214 A 
ATOM     27  C   UNL     1      46.224  17.461  20.467  0.00  0.00    -0.032 A 
ATOM     28  C   UNL     1      47.400  17.407  19.734  0.00  0.00    +0.204 A 
ATOM     29  O   UNL     1      48.347  18.357  19.876  0.00  0.00    -0.203 OA
ATOM     30  O   UNL     1      49.086  15.411  17.268  0.00  0.00    -0.444 OA
ATOM     31  C   UNL     1      49.499  18.334  19.185  0.00  0.00    +0.177 A 
ENDROOT
BRANCH  31  32
ATOM     32  C   UNL     1      50.482  19.410  19.406  0.00  0.00    -0.078 A 
ATOM     33  C   UNL     1      51.339  19.361  20.509  0.00  0.00    +0.074 A 
ATOM     34  C   UNL     1      52.257  20.368  20.711  0.00  0.00    -0.014 A 
ATOM     35  C   UNL     1      52.332  21.432  19.820  0.00  0.00    +0.134 A 
ATOM     38  C   UNL     1      51.483  21.484  18.721  0.00  0.00    -0.012 A 
ATOM     39  C   UNL     1      50.565  20.478  18.509  0.00  0.00    +0.100 A 
BRANCH  35  36
ATOM     36  O   UNL     1      53.238  22.423  20.023  0.00  0.00    -0.498 OA
ATOM     37  H   UNL     1      53.891  22.510  19.315  0.00  0.00    +0.397 HD
ENDBRANCH  35  36
ENDBRANCH  31  32
BRANCH   3   2
ATOM      1  C   UNL     1      51.964  16.430  18.003  0.00  0.00    +0.230 C 
ATOM      2  O   UNL     1      50.969  17.375  17.604  0.00  0.00    -0.297 OA
ENDBRANCH   3   2
BRANCH   6   7
ATOM      7  O   UNL     1      46.821  14.331  17.809  0.00  0.00    -0.474 OA
ATOM      8  H   UNL     1      46.056  14.138  17.250  0.00  0.00    +0.405 HD
ENDBRANCH   6   7
BRANCH  10  11
ATOM     11  O   UNL     1      44.114  16.537  21.032  0.00  0.00    -0.290 OA
BRANCH  11  12
ATOM     12  C   UNL     1      43.913  17.702  21.836  0.00  0.00    +0.184 C 
BRANCH  12  13
ATOM     13  C   UNL     1      42.648  18.427  21.375  0.00  0.00    +0.205 C 
BRANCH  13  14
ATOM     14  O   UNL     1      41.997  19.016  22.502  0.00  0.00    -0.539 OA
ATOM     15  H   UNL     1      41.072  19.249  22.345  0.00  0.00    +0.376 HD
ENDBRANCH  13  14
BRANCH  13  16
ATOM     16  C   UNL     1      43.024  19.522  20.374  0.00  0.00    +0.171 C 
BRANCH  16  17
ATOM     17  O   UNL     1      41.921  20.416  20.210  0.00  0.00    -0.528 OA
ATOM     18  H   UNL     1      41.785  21.014  20.957  0.00  0.00    +0.372 HD
ENDBRANCH  16  17
BRANCH  16  19
ATOM     19  C   UNL     1      44.235  20.297  20.897  0.00  0.00    +0.187 C 
BRANCH  19  20
ATOM     20  O   UNL     1      43.821  21.177  21.945  0.00  0.00    -0.544 OA
ATOM     21  H   UNL     1      42.873  21.147  22.132  0.00  0.00    +0.371 HD
ENDBRANCH  19  20
BRANCH  19  22
ATOM     22  C   UNL     1      44.848  21.114  19.758  0.00  0.00    +0.150 C 
BRANCH  22  23
ATOM     23  O   UNL     1      44.286  20.695  18.514  0.00  0.00    -0.521 OA
ATOM     24  H   UNL     1      44.898  20.753  17.767  0.00  0.00    +0.372 HD
ENDBRANCH  22  23
BRANCH  22  25
ATOM     25  C   UNL     1      44.554  22.577  19.975  0.00  0.00    +0.425 C 
ATOM     26  O   UNL     1      43.452  23.011  19.745  0.00  0.00    -0.441 OA
ENDBRANCH  22  25
ENDBRANCH  19  22
ENDBRANCH  16  19
ENDBRANCH  13  16
ENDBRANCH  12  13
ENDBRANCH  11  12
ENDBRANCH  10  11
TORSDOF 15
ENDMDL
MODEL 7
REMARK VINA RESULT:      -6.1      5.045      9.615
REMARK  Name = ZINC95486124
REMARK  16 active torsions:
REMARK  status: ('A' for Active; 'I' for Inactive)
REMARK    1  A    between atoms: C1_1  and  O1_2
REMARK    2  A    between atoms: O1_2  and  C2_3
REMARK    3  A    between atoms: C5_7  and  O11_37
REMARK    4  A    between atoms: C7_9  and  O5_21
REMARK    5  A    between atoms: C10_13  and  C11_14
REMARK    6  A    between atoms: C14_17  and  O4_20
REMARK    7  A    between atoms: O5_21  and  C17_22
REMARK    8  A    between atoms: C17_22  and  C18_23
REMARK    9  A    between atoms: C18_23  and  C19_25
REMARK   10  A    between atoms: C18_23  and  O10_36
REMARK   11  A    between atoms: C19_25  and  C20_27
REMARK   12  A    between atoms: C19_25  and  O9_35
REMARK   13  A    between atoms: C20_27  and  C21_29
REMARK   14  A    between atoms: C20_27  and  O8_34
REMARK   15  A    between atoms: C21_29  and  C22_31
REMARK   16  A    between atoms: C21_29  and  O7_33
REMARK                            x       y       z     vdW  Elec       q    Type
REMARK                         _______ _______ _______ _____ _____    ______ ____
ROOT
ATOM      3  C   UNL     1      46.389  18.883  19.458  0.00  0.00    -0.079 A 
ATOM      4  C   UNL     1      47.633  18.580  18.848  0.00  0.00    +0.409 A 
ATOM      5  C   UNL     1      47.758  17.279  18.172  0.00  0.00    -0.289 A 
ATOM      6  C   UNL     1      48.950  16.898  17.543  0.00  0.00    +0.246 A 
ATOM      9  C   UNL     1      49.027  15.666  16.919  0.00  0.00    -0.120 A 
ATOM     10  C   UNL     1      47.928  14.815  16.917  0.00  0.00    +0.214 A 
ATOM     27  C   UNL     1      46.745  15.184  17.537  0.00  0.00    -0.032 A 
ATOM     28  C   UNL     1      46.648  16.415  18.168  0.00  0.00    +0.204 A 
ATOM     29  O   UNL     1      45.504  16.790  18.777  0.00  0.00    -0.203 OA
ATOM     30  O   UNL     1      48.564  19.368  18.882  0.00  0.00    -0.444 OA
ATOM     31  C   UNL     1      45.376  17.972  19.403  0.00  0.00    +0.177 A 
ENDROOT
BRANCH  31  32
ATOM     32  C   UNL     1      44.091  18.300  20.047  0.00  0.00    -0.078 A 
ATOM     33  C   UNL     1      43.198  19.177  19.425  0.00  0.00    +0.074 A 
ATOM     34  C   UNL     1      41.998  19.480  20.029  0.00  0.00    -0.014 A 
ATOM     35  C   UNL     1      41.675  18.916  21.257  0.00  0.00    +0.134 A 
ATOM     38  C   UNL     1      42.559  18.043  21.880  0.00  0.00    -0.012 A 
ATOM     39  C   UNL     1      43.760  17.731  21.280  0.00  0.00    +0.100 A 
BRANCH  35  36
ATOM     36  O   UNL     1      40.491  19.218  21.850  0.00  0.00    -0.498 OA
ATOM     37  H   UNL     1      40.513  20.023  22.385  0.00  0.00    +0.397 HD
ENDBRANCH  35  36
ENDBRANCH  31  32
BRANCH   3   2
ATOM      1  C   UNL     1      46.626  20.137  21.466  0.00  0.00    +0.230 C 
ATOM      2  O   UNL     1      46.210  20.069  20.101  0.00  0.00    -0.297 OA
ENDBRANCH   3   2
BRANCH   6   7
ATOM      7  O   UNL     1      50.021  17.731  17.547  0.00  0.00    -0.474 OA
ATOM      8  H   UNL     1      50.519  17.728  18.376  0.00  0.00    +0.405 HD
ENDBRANCH   6   7
BRANCH  10  11
ATOM     11  O   UNL     1      48.014  13.607  16.300  0.00  0.00    -0.290 OA
BRANCH  11  12
ATOM     12  C   UNL     1      49.305  13.209  15.834  0.00  0.00    +0.184 C 
BRANCH  12  13
ATOM     13  C   UNL     1      49.194  12.713  14.391  0.00  0.00    +0.205 C 
BRANCH  13  14
ATOM     14  O   UNL     1      47.987  13.208  13.808  0.00  0.00    -0.539 OA
ATOM     15  H   UNL     1      47.943  13.105  12.847  0.00  0.00    +0.376 HD
ENDBRANCH  13  14
BRANCH  13  16
ATOM     16  C   UNL     1      50.393  13.218  13.585  0.00  0.00    +0.171 C 
BRANCH  16  17
ATOM     17  O   UNL     1      51.573  13.144  14.389  0.00  0.00    -0.528 OA
ATOM     18  H   UNL     1      51.993  14.000  14.551  0.00  0.00    +0.372 HD
ENDBRANCH  16  17
BRANCH  16  19
ATOM     19  C   UNL     1      50.572  12.351  12.337  0.00  0.00    +0.187 C 
BRANCH  19  20
ATOM     20  O   UNL     1      51.520  11.316  12.608  0.00  0.00    -0.544 OA
ATOM     21  H   UNL     1      51.197  10.426  12.414  0.00  0.00    +0.371 HD
ENDBRANCH  19  20
BRANCH  19  22
ATOM     22  C   UNL     1      51.078  13.217  11.182  0.00  0.00    +0.150 C 
BRANCH  22  23
ATOM     23  O   UNL     1      52.226  13.953  11.605  0.00  0.00    -0.521 OA
ATOM     24  H   UNL     1      52.610  14.513  10.917  0.00  0.00    +0.372 HD
ENDBRANCH  22  23
BRANCH  22  25
ATOM     25  C   UNL     1      51.448  12.335  10.017  0.00  0.00    +0.425 C 
ATOM     26  O   UNL     1      50.694  11.463   9.657  0.00  0.00    -0.441 OA
ENDBRANCH  22  25
ENDBRANCH  19  22
ENDBRANCH  16  19
ENDBRANCH  13  16
ENDBRANCH  12  13
ENDBRANCH  11  12
ENDBRANCH  10  11
TORSDOF 15
ENDMDL
MODEL 8
REMARK VINA RESULT:      -6.1      5.333      8.694
REMARK  Name = ZINC95486124
REMARK  16 active torsions:
REMARK  status: ('A' for Active; 'I' for Inactive)
REMARK    1  A    between atoms: C1_1  and  O1_2
REMARK    2  A    between atoms: O1_2  and  C2_3
REMARK    3  A    between atoms: C5_7  and  O11_37
REMARK    4  A    between atoms: C7_9  and  O5_21
REMARK    5  A    between atoms: C10_13  and  C11_14
REMARK    6  A    between atoms: C14_17  and  O4_20
REMARK    7  A    between atoms: O5_21  and  C17_22
REMARK    8  A    between atoms: C17_22  and  C18_23
REMARK    9  A    between atoms: C18_23  and  C19_25
REMARK   10  A    between atoms: C18_23  and  O10_36
REMARK   11  A    between atoms: C19_25  and  C20_27
REMARK   12  A    between atoms: C19_25  and  O9_35
REMARK   13  A    between atoms: C20_27  and  C21_29
REMARK   14  A    between atoms: C20_27  and  O8_34
REMARK   15  A    between atoms: C21_29  and  C22_31
REMARK   16  A    between atoms: C21_29  and  O7_33
REMARK                            x       y       z     vdW  Elec       q    Type
REMARK                         _______ _______ _______ _____ _____    ______ ____
ROOT
ATOM      3  C   UNL     1      48.092  18.490  19.840  0.00  0.00    -0.079 A 
ATOM      4  C   UNL     1      47.104  17.494  19.632  0.00  0.00    +0.409 A 
ATOM      5  C   UNL     1      47.413  16.422  18.672  0.00  0.00    -0.289 A 
ATOM      6  C   UNL     1      46.494  15.398  18.406  0.00  0.00    +0.246 A 
ATOM      9  C   UNL     1      46.822  14.409  17.497  0.00  0.00    -0.120 A 
ATOM     10  C   UNL     1      48.055  14.432  16.855  0.00  0.00    +0.214 A 
ATOM     27  C   UNL     1      48.969  15.440  17.113  0.00  0.00    -0.032 A 
ATOM     28  C   UNL     1      48.659  16.442  18.021  0.00  0.00    +0.204 A 
ATOM     29  O   UNL     1      49.537  17.432  18.283  0.00  0.00    -0.203 OA
ATOM     30  O   UNL     1      46.037  17.526  20.225  0.00  0.00    -0.444 OA
ATOM     31  C   UNL     1      49.268  18.421  19.153  0.00  0.00    +0.177 A 
ENDROOT
BRANCH  31  32
ATOM     32  C   UNL     1      50.283  19.467  19.377  0.00  0.00    -0.078 A 
ATOM     33  C   UNL     1      51.084  19.432  20.521  0.00  0.00    +0.074 A 
ATOM     34  C   UNL     1      52.032  20.410  20.727  0.00  0.00    -0.014 A 
ATOM     35  C   UNL     1      52.192  21.431  19.797  0.00  0.00    +0.134 A 
ATOM     38  C   UNL     1      51.398  21.469  18.657  0.00  0.00    -0.012 A 
ATOM     39  C   UNL     1      50.451  20.492  18.442  0.00  0.00    +0.100 A 
BRANCH  35  36
ATOM     36  O   UNL     1      53.127  22.394  20.003  0.00  0.00    -0.498 OA
ATOM     37  H   UNL     1      53.967  22.229  19.553  0.00  0.00    +0.397 HD
ENDBRANCH  35  36
ENDBRANCH  31  32
BRANCH   3   2
ATOM      1  C   UNL     1      47.151  20.641  20.217  0.00  0.00    +0.230 C 
ATOM      2  O   UNL     1      47.868  19.509  20.713  0.00  0.00    -0.297 OA
ENDBRANCH   3   2
BRANCH   6   7
ATOM      7  O   UNL     1      45.291  15.378  19.034  0.00  0.00    -0.474 OA
ATOM      8  H   UNL     1      45.201  16.041  19.732  0.00  0.00    +0.405 HD
ENDBRANCH   6   7
BRANCH  10  11
ATOM     11  O   UNL     1      48.367  13.454  15.965  0.00  0.00    -0.290 OA
BRANCH  11  12
ATOM     12  C   UNL     1      49.742  13.331  15.592  0.00  0.00    +0.184 C 
BRANCH  12  13
ATOM     13  C   UNL     1      49.865  12.363  14.414  0.00  0.00    +0.205 C 
BRANCH  13  14
ATOM     14  O   UNL     1      48.585  12.190  13.803  0.00  0.00    -0.539 OA
ATOM     15  H   UNL     1      48.338  11.265  13.663  0.00  0.00    +0.376 HD
ENDBRANCH  13  14
BRANCH  13  16
ATOM     16  C   UNL     1      50.847  12.932  13.388  0.00  0.00    +0.171 C 
BRANCH  16  17
ATOM     17  O   UNL     1      52.186  12.724  13.842  0.00  0.00    -0.528 OA
ATOM     18  H   UNL     1      52.795  12.431  13.151  0.00  0.00    +0.372 HD
ENDBRANCH  16  17
BRANCH  16  19
ATOM     19  C   UNL     1      50.649  12.224  12.045  0.00  0.00    +0.187 C 
BRANCH  19  20
ATOM     20  O   UNL     1      51.450  11.041  12.007  0.00  0.00    -0.544 OA
ATOM     21  H   UNL     1      51.265  10.418  12.723  0.00  0.00    +0.371 HD
ENDBRANCH  19  20
BRANCH  19  22
ATOM     22  C   UNL     1      51.066  13.160  10.909  0.00  0.00    +0.150 C 
BRANCH  22  23
ATOM     23  O   UNL     1      52.211  13.915  11.309  0.00  0.00    -0.521 OA
ATOM     24  H   UNL     1      52.010  14.823  11.575  0.00  0.00    +0.372 HD
ENDBRANCH  22  23
BRANCH  22  25
ATOM     25  C   UNL     1      51.404  12.345   9.686  0.00  0.00    +0.425 C 
ATOM     26  O   UNL     1      50.638  11.498   9.295  0.00  0.00    -0.441 OA
ENDBRANCH  22  25
ENDBRANCH  19  22
ENDBRANCH  16  19
ENDBRANCH  13  16
ENDBRANCH  12  13
ENDBRANCH  11  12
ENDBRANCH  10  11
TORSDOF 15
ENDMDL
MODEL 9
REMARK VINA RESULT:      -6.0      4.496      8.480
REMARK  Name = ZINC95486124
REMARK  16 active torsions:
REMARK  status: ('A' for Active; 'I' for Inactive)
REMARK    1  A    between atoms: C1_1  and  O1_2
REMARK    2  A    between atoms: O1_2  and  C2_3
REMARK    3  A    between atoms: C5_7  and  O11_37
REMARK    4  A    between atoms: C7_9  and  O5_21
REMARK    5  A    between atoms: C10_13  and  C11_14
REMARK    6  A    between atoms: C14_17  and  O4_20
REMARK    7  A    between atoms: O5_21  and  C17_22
REMARK    8  A    between atoms: C17_22  and  C18_23
REMARK    9  A    between atoms: C18_23  and  C19_25
REMARK   10  A    between atoms: C18_23  and  O10_36
REMARK   11  A    between atoms: C19_25  and  C20_27
REMARK   12  A    between atoms: C19_25  and  O9_35
REMARK   13  A    between atoms: C20_27  and  C21_29
REMARK   14  A    between atoms: C20_27  and  O8_34
REMARK   15  A    between atoms: C21_29  and  C22_31
REMARK   16  A    between atoms: C21_29  and  O7_33
REMARK                            x       y       z     vdW  Elec       q    Type
REMARK                         _______ _______ _______ _____ _____    ______ ____
ROOT
ATOM      3  C   UNL     1      44.683  17.512  20.759  0.00  0.00    -0.079 A 
ATOM      4  C   UNL     1      44.907  16.111  20.736  0.00  0.00    +0.409 A 
ATOM      5  C   UNL     1      45.528  15.543  19.529  0.00  0.00    -0.289 A 
ATOM      6  C   UNL     1      45.786  14.170  19.422  0.00  0.00    +0.246 A 
ATOM      9  C   UNL     1      46.370  13.676  18.270  0.00  0.00    -0.120 A 
ATOM     10  C   UNL     1      46.700  14.537  17.229  0.00  0.00    +0.214 A 
ATOM     27  C   UNL     1      46.449  15.895  17.328  0.00  0.00    -0.032 A 
ATOM     28  C   UNL     1      45.863  16.411  18.474  0.00  0.00    +0.204 A 
ATOM     29  O   UNL     1      45.610  17.732  18.586  0.00  0.00    -0.203 OA
ATOM     30  O   UNL     1      44.596  15.404  21.682  0.00  0.00    -0.444 OA
ATOM     31  C   UNL     1      45.039  18.265  19.679  0.00  0.00    +0.177 A 
ENDROOT
BRANCH  31  32
ATOM     32  C   UNL     1      44.794  19.718  19.717  0.00  0.00    -0.078 A 
ATOM     33  C   UNL     1      43.552  20.230  19.330  0.00  0.00    +0.074 A 
ATOM     34  C   UNL     1      43.326  21.588  19.367  0.00  0.00    -0.014 A 
ATOM     35  C   UNL     1      44.331  22.450  19.788  0.00  0.00    +0.134 A 
ATOM     38  C   UNL     1      45.568  21.946  20.174  0.00  0.00    -0.012 A 
ATOM     39  C   UNL     1      45.800  20.588  20.145  0.00  0.00    +0.100 A 
BRANCH  35  36
ATOM     36  O   UNL     1      44.105  23.789  19.823  0.00  0.00    -0.498 OA
ATOM     37  H   UNL     1      43.172  24.028  19.903  0.00  0.00    +0.397 HD
ENDBRANCH  35  36
ENDBRANCH  31  32
BRANCH   3   2
ATOM      1  C   UNL     1      42.695  17.961  21.985  0.00  0.00    +0.230 C 
ATOM      2  O   UNL     1      44.111  18.098  21.845  0.00  0.00    -0.297 OA
ENDBRANCH   3   2
BRANCH   6   7
ATOM      7  O   UNL     1      45.464  13.333  20.439  0.00  0.00    -0.474 OA
ATOM      8  H   UNL     1      45.988  12.521  20.462  0.00  0.00    +0.405 HD
ENDBRANCH   6   7
BRANCH  10  11
ATOM     11  O   UNL     1      47.275  14.040  16.103  0.00  0.00    -0.290 OA
BRANCH  11  12
ATOM     12  C   UNL     1      47.392  12.619  16.007  0.00  0.00    +0.184 C 
BRANCH  12  13
ATOM     13  C   UNL     1      47.790  12.236  14.581  0.00  0.00    +0.205 C 
BRANCH  13  14
ATOM     14  O   UNL     1      47.588  13.352  13.712  0.00  0.00    -0.539 OA
ATOM     15  H   UNL     1      47.308  13.110  12.819  0.00  0.00    +0.376 HD
ENDBRANCH  13  14
BRANCH  13  16
ATOM     16  C   UNL     1      49.266  11.831  14.554  0.00  0.00    +0.171 C 
BRANCH  16  17
ATOM     17  O   UNL     1      49.389  10.512  14.017  0.00  0.00    -0.528 OA
ATOM     18  H   UNL     1      50.082   9.982  14.432  0.00  0.00    +0.372 HD
ENDBRANCH  16  17
BRANCH  16  19
ATOM     19  C   UNL     1      50.049  12.813  13.680  0.00  0.00    +0.187 C 
BRANCH  19  20
ATOM     20  O   UNL     1      50.076  12.333  12.333  0.00  0.00    -0.544 OA
ATOM     21  H   UNL     1      50.015  11.371  12.257  0.00  0.00    +0.371 HD
ENDBRANCH  19  20
BRANCH  19  22
ATOM     22  C   UNL     1      51.479  12.936  14.206  0.00  0.00    +0.150 C 
BRANCH  22  23
ATOM     23  O   UNL     1      52.203  13.872  13.406  0.00  0.00    -0.521 OA
ATOM     24  H   UNL     1      52.834  14.410  13.904  0.00  0.00    +0.372 HD
ENDBRANCH  22  23
BRANCH  22  25
ATOM     25  C   UNL     1      51.449  13.414  15.635  0.00  0.00    +0.425 C 
ATOM     26  O   UNL     1      51.418  14.596  15.876  0.00  0.00    -0.441 OA
ENDBRANCH  22  25
ENDBRANCH  19  22
ENDBRANCH  16  19
ENDBRANCH  13  16
ENDBRANCH  12  13
ENDBRANCH  11  12
ENDBRANCH  10  11
TORSDOF 15
ENDMDL
