MODEL 1
REMARK VINA RESULT:      -5.2      0.000      0.000
REMARK  Name = ZINC00900237
REMARK  2 active torsions:
REMARK  status: ('A' for Active; 'I' for Inactive)
REMARK    1  A    between atoms: C1_1  and  O1_2
REMARK    2  A    between atoms: O1_2  and  C2_3
REMARK                            x       y       z     vdW  Elec       q    Type
REMARK                         _______ _______ _______ _____ _____    ______ ____
ROOT
ATOM      3  C   UNL     1      45.212  20.894  21.274  0.00  0.00    +0.350 A 
ATOM      4  C   UNL     1      46.013  21.999  21.544  0.00  0.00    -0.195 A 
ATOM      5  C   UNL     1      47.269  22.198  22.280  0.00  0.00    +0.042 A 
ATOM      6  C   UNL     1      47.551  23.502  22.189  0.00  0.00    +0.280 A 
ATOM      7  O   UNL     1      46.602  24.136  21.475  0.00  0.00    -0.172 OA
ATOM      8  C   UNL     1      45.650  23.274  21.060  0.00  0.00    +0.348 A 
ATOM      9  N   UNL     1      44.532  23.509  20.320  0.00  0.00    -0.492 N 
ATOM     10  H   UNL     1      44.290  24.447  19.981  0.00  0.00    +0.476 HD
ATOM     11  C   UNL     1      43.743  22.410  20.053  0.00  0.00    +0.233 A 
ATOM     12  C   UNL     1      42.583  22.613  19.286  0.00  0.00    +0.011 A 
ATOM     13  C   UNL     1      41.766  21.560  18.990  0.00  0.00    +0.161 A 
ATOM     14  O   UNL     1      40.604  21.503  18.274  0.00  0.00    -0.281 OA
ATOM     15  C   UNL     1      40.420  20.114  17.947  0.00  0.00    +0.474 C 
ATOM     16  O   UNL     1      41.091  19.414  19.011  0.00  0.00    -0.284 OA
ATOM     17  C   UNL     1      42.068  20.265  19.447  0.00  0.00    +0.053 A 
ATOM     18  C   UNL     1      43.187  20.036  20.193  0.00  0.00    +0.133 A 
ATOM     19  C   UNL     1      44.046  21.101  20.508  0.00  0.00    -0.119 A 
ENDROOT
BRANCH   3   2
ATOM      1  C   UNL     1      46.506  18.925  20.975  0.00  0.00    +0.299 C 
ATOM      2  O   UNL     1      45.540  19.661  21.730  0.00  0.00    -0.317 OA
ENDBRANCH   3   2
TORSDOF 1
ENDMDL
MODEL 2
REMARK VINA RESULT:      -5.1      2.507      5.500
REMARK  Name = ZINC00900237
REMARK  2 active torsions:
REMARK  status: ('A' for Active; 'I' for Inactive)
REMARK    1  A    between atoms: C1_1  and  O1_2
REMARK    2  A    between atoms: O1_2  and  C2_3
REMARK                            x       y       z     vdW  Elec       q    Type
REMARK                         _______ _______ _______ _____ _____    ______ ____
ROOT
ATOM      3  C   UNL     1      43.751  18.888  20.304  0.00  0.00    +0.350 A 
ATOM      4  C   UNL     1      42.641  19.629  19.910  0.00  0.00    -0.195 A 
ATOM      5  C   UNL     1      41.190  19.466  20.074  0.00  0.00    +0.042 A 
ATOM      6  C   UNL     1      40.626  20.516  19.468  0.00  0.00    +0.280 A 
ATOM      7  O   UNL     1      41.573  21.315  18.943  0.00  0.00    -0.172 OA
ATOM      8  C   UNL     1      42.809  20.826  19.183  0.00  0.00    +0.348 A 
ATOM      9  N   UNL     1      44.023  21.327  18.826  0.00  0.00    -0.492 N 
ATOM     10  H   UNL     1      44.118  22.201  18.296  0.00  0.00    +0.476 HD
ATOM     11  C   UNL     1      45.120  20.592  19.223  0.00  0.00    +0.233 A 
ATOM     12  C   UNL     1      46.391  21.082  18.878  0.00  0.00    +0.011 A 
ATOM     13  C   UNL     1      47.512  20.394  19.245  0.00  0.00    +0.161 A 
ATOM     14  O   UNL     1      48.834  20.661  19.033  0.00  0.00    -0.281 OA
ATOM     15  C   UNL     1      49.549  19.844  19.978  0.00  0.00    +0.474 C 
ATOM     16  O   UNL     1      48.675  18.721  20.197  0.00  0.00    -0.284 OA
ATOM     17  C   UNL     1      47.413  19.191  19.966  0.00  0.00    +0.053 A 
ATOM     18  C   UNL     1      46.194  18.690  20.316  0.00  0.00    +0.133 A 
ATOM     19  C   UNL     1      45.025  19.380  19.953  0.00  0.00    -0.119 A 
ENDROOT
BRANCH   3   2
ATOM      1  C   UNL     1      43.324  17.850  22.397  0.00  0.00    +0.299 C 
ATOM      2  O   UNL     1      43.614  17.735  21.002  0.00  0.00    -0.317 OA
ENDBRANCH   3   2
TORSDOF 1
ENDMDL
MODEL 3
REMARK VINA RESULT:      -5.0     21.192     22.771
REMARK  Name = ZINC00900237
REMARK  2 active torsions:
REMARK  status: ('A' for Active; 'I' for Inactive)
REMARK    1  A    between atoms: C1_1  and  O1_2
REMARK    2  A    between atoms: O1_2  and  C2_3
REMARK                            x       y       z     vdW  Elec       q    Type
REMARK                         _______ _______ _______ _____ _____    ______ ____
ROOT
ATOM      3  C   UNL     1      53.668  32.776   4.556  0.00  0.00    +0.350 A 
ATOM      4  C   UNL     1      53.010  33.417   5.601  0.00  0.00    -0.195 A 
ATOM      5  C   UNL     1      51.598  33.622   5.950  0.00  0.00    +0.042 A 
ATOM      6  C   UNL     1      51.594  34.327   7.087  0.00  0.00    +0.280 A 
ATOM      7  O   UNL     1      52.855  34.583   7.482  0.00  0.00    -0.172 OA
ATOM      8  C   UNL     1      53.749  34.054   6.620  0.00  0.00    +0.348 A 
ATOM      9  N   UNL     1      55.110  34.087   6.656  0.00  0.00    -0.492 N 
ATOM     10  H   UNL     1      55.624  34.559   7.409  0.00  0.00    +0.476 HD
ATOM     11  C   UNL     1      55.757  33.447   5.620  0.00  0.00    +0.233 A 
ATOM     12  C   UNL     1      57.162  33.455   5.627  0.00  0.00    +0.011 A 
ATOM     13  C   UNL     1      57.854  32.836   4.627  0.00  0.00    +0.161 A 
ATOM     14  O   UNL     1      59.198  32.707   4.415  0.00  0.00    -0.281 OA
ATOM     15  C   UNL     1      59.338  31.632   3.469  0.00  0.00    +0.474 C 
ATOM     16  O   UNL     1      58.106  31.661   2.725  0.00  0.00    -0.284 OA
ATOM     17  C   UNL     1      57.178  32.187   3.579  0.00  0.00    +0.053 A 
ATOM     18  C   UNL     1      55.814  32.162   3.544  0.00  0.00    +0.133 A 
ATOM     19  C   UNL     1      55.078  32.789   4.564  0.00  0.00    -0.119 A 
ENDROOT
BRANCH   3   2
ATOM      1  C   UNL     1      52.457  32.988   2.524  0.00  0.00    +0.299 C 
ATOM      2  O   UNL     1      52.979  32.159   3.566  0.00  0.00    -0.317 OA
ENDBRANCH   3   2
TORSDOF 1
ENDMDL
MODEL 4
REMARK VINA RESULT:      -5.0      4.398      6.565
REMARK  Name = ZINC00900237
REMARK  2 active torsions:
REMARK  status: ('A' for Active; 'I' for Inactive)
REMARK    1  A    between atoms: C1_1  and  O1_2
REMARK    2  A    between atoms: O1_2  and  C2_3
REMARK                            x       y       z     vdW  Elec       q    Type
REMARK                         _______ _______ _______ _____ _____    ______ ____
ROOT
ATOM      3  C   UNL     1      46.504  16.614  17.789  0.00  0.00    +0.350 A 
ATOM      4  C   UNL     1      46.441  15.272  18.150  0.00  0.00    -0.195 A 
ATOM      5  C   UNL     1      47.063  14.043  17.638  0.00  0.00    +0.042 A 
ATOM      6  C   UNL     1      46.611  13.048  18.409  0.00  0.00    +0.280 A 
ATOM      7  O   UNL     1      45.773  13.527  19.346  0.00  0.00    -0.172 OA
ATOM      8  C   UNL     1      45.636  14.866  19.235  0.00  0.00    +0.348 A 
ATOM      9  N   UNL     1      44.889  15.725  19.982  0.00  0.00    -0.492 N 
ATOM     10  H   UNL     1      44.310  15.403  20.767  0.00  0.00    +0.476 HD
ATOM     11  C   UNL     1      44.957  17.054  19.622  0.00  0.00    +0.233 A 
ATOM     12  C   UNL     1      44.203  17.971  20.374  0.00  0.00    +0.011 A 
ATOM     13  C   UNL     1      44.234  19.300  20.062  0.00  0.00    +0.161 A 
ATOM     14  O   UNL     1      43.602  20.368  20.633  0.00  0.00    -0.281 OA
ATOM     15  C   UNL     1      44.314  21.530  20.172  0.00  0.00    +0.474 C 
ATOM     16  O   UNL     1      44.857  21.124  18.903  0.00  0.00    -0.284 OA
ATOM     17  C   UNL     1      45.012  19.769  18.989  0.00  0.00    +0.053 A 
ATOM     18  C   UNL     1      45.755  18.903  18.240  0.00  0.00    +0.133 A 
ATOM     19  C   UNL     1      45.743  17.531  18.543  0.00  0.00    -0.119 A 
ENDROOT
BRANCH   3   2
ATOM      1  C   UNL     1      48.661  17.226  17.007  0.00  0.00    +0.299 C 
ATOM      2  O   UNL     1      47.269  17.026  16.749  0.00  0.00    -0.317 OA
ENDBRANCH   3   2
TORSDOF 1
ENDMDL
MODEL 5
REMARK VINA RESULT:      -4.9      3.971      5.779
REMARK  Name = ZINC00900237
REMARK  2 active torsions:
REMARK  status: ('A' for Active; 'I' for Inactive)
REMARK    1  A    between atoms: C1_1  and  O1_2
REMARK    2  A    between atoms: O1_2  and  C2_3
REMARK                            x       y       z     vdW  Elec       q    Type
REMARK                         _______ _______ _______ _____ _____    ______ ____
ROOT
ATOM      3  C   UNL     1      44.563  18.210  20.563  0.00  0.00    +0.350 A 
ATOM      4  C   UNL     1      44.605  19.516  20.085  0.00  0.00    -0.195 A 
ATOM      5  C   UNL     1      44.155  20.813  20.609  0.00  0.00    +0.042 A 
ATOM      6  C   UNL     1      44.476  21.721  19.680  0.00  0.00    +0.280 A 
ATOM      7  O   UNL     1      45.078  21.125  18.634  0.00  0.00    -0.172 OA
ATOM      8  C   UNL     1      45.182  19.793  18.828  0.00  0.00    +0.348 A 
ATOM      9  N   UNL     1      45.721  18.840  18.020  0.00  0.00    -0.492 N 
ATOM     10  H   UNL     1      46.135  19.069  17.108  0.00  0.00    +0.476 HD
ATOM     11  C   UNL     1      45.681  17.548  18.500  0.00  0.00    +0.233 A 
ATOM     12  C   UNL     1      46.234  16.537  17.695  0.00  0.00    +0.011 A 
ATOM     13  C   UNL     1      46.221  15.240  18.121  0.00  0.00    +0.161 A 
ATOM     14  O   UNL     1      46.689  14.101  17.531  0.00  0.00    -0.281 OA
ATOM     15  C   UNL     1      46.781  13.129  18.588  0.00  0.00    +0.474 C 
ATOM     16  O   UNL     1      45.778  13.546  19.532  0.00  0.00    -0.284 OA
ATOM     17  C   UNL     1      45.656  14.896  19.361  0.00  0.00    +0.053 A 
ATOM     18  C   UNL     1      45.111  15.855  20.165  0.00  0.00    +0.133 A 
ATOM     19  C   UNL     1      45.115  17.197  19.752  0.00  0.00    -0.119 A 
ENDROOT
BRANCH   3   2
ATOM      1  C   UNL     1      42.584  17.923  21.845  0.00  0.00    +0.299 C 
ATOM      2  O   UNL     1      44.012  17.920  21.767  0.00  0.00    -0.317 OA
ENDBRANCH   3   2
TORSDOF 1
ENDMDL
MODEL 6
REMARK VINA RESULT:      -4.9      4.452      6.501
REMARK  Name = ZINC00900237
REMARK  2 active torsions:
REMARK  status: ('A' for Active; 'I' for Inactive)
REMARK    1  A    between atoms: C1_1  and  O1_2
REMARK    2  A    between atoms: O1_2  and  C2_3
REMARK                            x       y       z     vdW  Elec       q    Type
REMARK                         _______ _______ _______ _____ _____    ______ ____
ROOT
ATOM      3  C   UNL     1      45.500  15.613  19.397  0.00  0.00    +0.350 A 
ATOM      4  C   UNL     1      46.106  14.916  18.357  0.00  0.00    -0.195 A 
ATOM      5  C   UNL     1      46.420  13.500  18.119  0.00  0.00    +0.042 A 
ATOM      6  C   UNL     1      47.014  13.447  16.922  0.00  0.00    +0.280 A 
ATOM      7  O   UNL     1      47.104  14.680  16.390  0.00  0.00    -0.172 OA
ATOM      8  C   UNL     1      46.569  15.604  17.216  0.00  0.00    +0.348 A 
ATOM      9  N   UNL     1      46.461  16.951  17.053  0.00  0.00    -0.492 N 
ATOM     10  H   UNL     1      46.807  17.429  16.213  0.00  0.00    +0.476 HD
ATOM     11  C   UNL     1      45.856  17.637  18.085  0.00  0.00    +0.233 A 
ATOM     12  C   UNL     1      45.721  19.030  17.950  0.00  0.00    +0.011 A 
ATOM     13  C   UNL     1      45.129  19.759  18.941  0.00  0.00    +0.161 A 
ATOM     14  O   UNL     1      44.885  21.099  19.041  0.00  0.00    -0.281 OA
ATOM     15  C   UNL     1      43.893  21.234  20.075  0.00  0.00    +0.474 C 
ATOM     16  O   UNL     1      44.114  20.091  20.920  0.00  0.00    -0.284 OA
ATOM     17  C   UNL     1      44.652  19.134  20.106  0.00  0.00    +0.053 A 
ATOM     18  C   UNL     1      44.768  17.784  20.267  0.00  0.00    +0.133 A 
ATOM     19  C   UNL     1      45.370  17.010  19.260  0.00  0.00    -0.119 A 
ENDROOT
BRANCH   3   2
ATOM      1  C   UNL     1      46.015  14.657  21.509  0.00  0.00    +0.299 C 
ATOM      2  O   UNL     1      45.050  14.972  20.503  0.00  0.00    -0.317 OA
ENDBRANCH   3   2
TORSDOF 1
ENDMDL
MODEL 7
REMARK VINA RESULT:      -4.8     21.512     22.921
REMARK  Name = ZINC00900237
REMARK  2 active torsions:
REMARK  status: ('A' for Active; 'I' for Inactive)
REMARK    1  A    between atoms: C1_1  and  O1_2
REMARK    2  A    between atoms: O1_2  and  C2_3
REMARK                            x       y       z     vdW  Elec       q    Type
REMARK                         _______ _______ _______ _____ _____    ______ ____
ROOT
ATOM      3  C   UNL     1      57.303  33.002   4.961  0.00  0.00    +0.350 A 
ATOM      4  C   UNL     1      57.610  32.052   3.992  0.00  0.00    -0.195 A 
ATOM      5  C   UNL     1      58.861  31.466   3.491  0.00  0.00    +0.042 A 
ATOM      6  C   UNL     1      58.510  30.593   2.541  0.00  0.00    +0.280 A 
ATOM      7  O   UNL     1      57.172  30.573   2.397  0.00  0.00    -0.172 OA
ATOM      8  C   UNL     1      56.580  31.436   3.251  0.00  0.00    +0.348 A 
ATOM      9  N   UNL     1      55.258  31.714   3.423  0.00  0.00    -0.492 N 
ATOM     10  H   UNL     1      54.527  31.251   2.870  0.00  0.00    +0.476 HD
ATOM     11  C   UNL     1      54.959  32.653   4.387  0.00  0.00    +0.233 A 
ATOM     12  C   UNL     1      53.604  32.961   4.597  0.00  0.00    +0.011 A 
ATOM     13  C   UNL     1      53.251  33.884   5.539  0.00  0.00    +0.161 A 
ATOM     14  O   UNL     1      52.024  34.345   5.923  0.00  0.00    -0.281 OA
ATOM     15  C   UNL     1      52.230  34.971   7.202  0.00  0.00    +0.474 C 
ATOM     16  O   UNL     1      53.603  35.400   7.162  0.00  0.00    -0.284 OA
ATOM     17  C   UNL     1      54.230  34.538   6.307  0.00  0.00    +0.053 A 
ATOM     18  C   UNL     1      55.554  34.260   6.127  0.00  0.00    +0.133 A 
ATOM     19  C   UNL     1      55.943  33.312   5.166  0.00  0.00    -0.119 A 
ENDROOT
BRANCH   3   2
ATOM      1  C   UNL     1      58.948  34.712   5.070  0.00  0.00    +0.299 C 
ATOM      2  O   UNL     1      58.277  33.608   5.683  0.00  0.00    -0.317 OA
ENDBRANCH   3   2
TORSDOF 1
ENDMDL
MODEL 8
REMARK VINA RESULT:      -4.8     22.541     24.356
REMARK  Name = ZINC00900237
REMARK  2 active torsions:
REMARK  status: ('A' for Active; 'I' for Inactive)
REMARK    1  A    between atoms: C1_1  and  O1_2
REMARK    2  A    between atoms: O1_2  and  C2_3
REMARK                            x       y       z     vdW  Elec       q    Type
REMARK                         _______ _______ _______ _____ _____    ______ ____
ROOT
ATOM      3  C   UNL     1      40.367  34.717  -0.166  0.00  0.00    +0.350 A 
ATOM      4  C   UNL     1      41.197  34.459   0.921  0.00  0.00    -0.195 A 
ATOM      5  C   UNL     1      42.619  34.699   1.203  0.00  0.00    +0.042 A 
ATOM      6  C   UNL     1      42.839  34.223   2.434  0.00  0.00    +0.280 A 
ATOM      7  O   UNL     1      41.705  33.712   2.947  0.00  0.00    -0.172 OA
ATOM      8  C   UNL     1      40.682  33.830   2.074  0.00  0.00    +0.348 A 
ATOM      9  N   UNL     1      39.383  33.443   2.205  0.00  0.00    -0.492 N 
ATOM     10  H   UNL     1      39.033  32.986   3.055  0.00  0.00    +0.476 HD
ATOM     11  C   UNL     1      38.564  33.704   1.127  0.00  0.00    +0.233 A 
ATOM     12  C   UNL     1      37.214  33.325   1.228  0.00  0.00    +0.011 A 
ATOM     13  C   UNL     1      36.359  33.559   0.190  0.00  0.00    +0.161 A 
ATOM     14  O   UNL     1      35.027  33.289   0.051  0.00  0.00    -0.281 OA
ATOM     15  C   UNL     1      34.578  34.112  -1.041  0.00  0.00    +0.474 C 
ATOM     16  O   UNL     1      35.756  34.287  -1.851  0.00  0.00    -0.284 OA
ATOM     17  C   UNL     1      36.810  34.178  -0.989  0.00  0.00    +0.053 A 
ATOM     18  C   UNL     1      38.114  34.558  -1.117  0.00  0.00    +0.133 A 
ATOM     19  C   UNL     1      39.015  34.331  -0.063  0.00  0.00    -0.119 A 
ENDROOT
BRANCH   3   2
ATOM      1  C   UNL     1      41.536  34.492  -2.221  0.00  0.00    +0.299 C 
ATOM      2  O   UNL     1      40.841  35.318  -1.284  0.00  0.00    -0.317 OA
ENDBRANCH   3   2
TORSDOF 1
ENDMDL
MODEL 9
REMARK VINA RESULT:      -4.7      3.276      4.351
REMARK  Name = ZINC00900237
REMARK  2 active torsions:
REMARK  status: ('A' for Active; 'I' for Inactive)
REMARK    1  A    between atoms: C1_1  and  O1_2
REMARK    2  A    between atoms: O1_2  and  C2_3
REMARK                            x       y       z     vdW  Elec       q    Type
REMARK                         _______ _______ _______ _____ _____    ______ ____
ROOT
ATOM      3  C   UNL     1      46.717  18.239  18.210  0.00  0.00    +0.350 A 
ATOM      4  C   UNL     1      48.098  18.359  18.336  0.00  0.00    -0.195 A 
ATOM      5  C   UNL     1      49.235  17.482  18.027  0.00  0.00    +0.042 A 
ATOM      6  C   UNL     1      50.334  18.161  18.375  0.00  0.00    +0.280 A 
ATOM      7  O   UNL     1      50.000  19.368  18.868  0.00  0.00    -0.172 OA
ATOM      8  C   UNL     1      48.661  19.539  18.866  0.00  0.00    +0.348 A 
ATOM      9  N   UNL     1      47.925  20.608  19.277  0.00  0.00    -0.492 N 
ATOM     10  H   UNL     1      48.360  21.455  19.660  0.00  0.00    +0.476 HD
ATOM     11  C   UNL     1      46.558  20.484  19.146  0.00  0.00    +0.233 A 
ATOM     12  C   UNL     1      45.764  21.570  19.555  0.00  0.00    +0.011 A 
ATOM     13  C   UNL     1      44.405  21.503  19.447  0.00  0.00    +0.161 A 
ATOM     14  O   UNL     1      43.436  22.410  19.770  0.00  0.00    -0.281 OA
ATOM     15  C   UNL     1      42.255  21.978  19.070  0.00  0.00    +0.474 C 
ATOM     16  O   UNL     1      42.429  20.556  18.939  0.00  0.00    -0.284 OA
ATOM     17  C   UNL     1      43.781  20.353  18.933  0.00  0.00    +0.053 A 
ATOM     18  C   UNL     1      44.523  19.283  18.528  0.00  0.00    +0.133 A 
ATOM     19  C   UNL     1      45.924  19.328  18.624  0.00  0.00    -0.119 A 
ENDROOT
BRANCH   3   2
ATOM      1  C   UNL     1      46.038  15.994  18.587  0.00  0.00    +0.299 C 
ATOM      2  O   UNL     1      46.154  17.114  17.705  0.00  0.00    -0.317 OA
ENDBRANCH   3   2
TORSDOF 1
ENDMDL
