MODEL 1
REMARK VINA RESULT:      -5.7      0.000      0.000
REMARK  Name = ZINC15250727
REMARK  6 active torsions:
REMARK  status: ('A' for Active; 'I' for Inactive)
REMARK    1  A    between atoms: C1_1  and  C2_2
REMARK    2  A    between atoms: C2_2  and  C20_26
REMARK    3  A    between atoms: C6_6  and  C19_25
REMARK    4  A    between atoms: C10_11  and  C18_23
REMARK    5  A    between atoms: C14_16  and  C17_21
REMARK    6  A    between atoms: C16_18  and  O1_20
REMARK                            x       y       z     vdW  Elec       q    Type
REMARK                         _______ _______ _______ _____ _____    ______ ____
ROOT
ATOM      1  C   UNL     1      51.130  21.070  17.587  0.00  0.00    +0.011 C 
ATOM      2  C   UNL     1      50.714  19.705  18.195  0.00  0.00    -0.047 C 
ATOM      3  C   UNL     1      51.781  19.342  19.230  0.00  0.00    +0.021 C 
ATOM      4  C   UNL     1      50.745  18.701  17.047  0.00  0.00    +0.011 C 
ATOM      5  C   UNL     1      49.958  17.431  17.340  0.00  0.00    +0.003 C 
ATOM      6  C   UNL     1      48.527  17.796  17.742  0.00  0.00    +0.023 C 
ATOM      7  C   UNL     1      48.570  18.589  19.062  0.00  0.00    -0.038 C 
ATOM      8  C   UNL     1      49.244  17.679  20.090  0.00  0.00    +0.027 C 
ATOM      9  C   UNL     1      47.137  18.939  19.497  0.00  0.00    +0.039 C 
ATOM     10  C   UNL     1      46.422  19.527  18.270  0.00  0.00    +0.061 C 
ATOM     11  C   UNL     1      44.936  19.261  18.341  0.00  0.00    +0.062 C 
ATOM     12  C   UNL     1      44.193  20.044  19.096  0.00  0.00    -0.225 C 
ATOM     15  C   UNL     1      44.889  21.082  19.955  0.00  0.00    +0.065 C 
ATOM     16  C   UNL     1      45.652  20.346  21.040  0.00  0.00    +0.185 C 
ATOM     19  C   UNL     1      47.065  19.916  20.649  0.00  0.00    -0.096 C 
ATOM     22  C   UNL     1      47.937  21.146  20.417  0.00  0.00    +0.043 C 
ATOM     23  C   UNL     1      49.374  20.730  20.075  0.00  0.00    +0.018 C 
ATOM     24  C   UNL     1      49.343  19.875  18.810  0.00  0.00    +0.005 C 
ENDROOT
BRANCH  12  13
ATOM     13  C   UNL     1      42.745  19.883  19.154  0.00  0.00    +0.474 C 
ATOM     14  O   UNL     1      42.043  20.388  18.303  0.00  0.00    -0.458 OA
ENDBRANCH  12  13
BRANCH  16  17
ATOM     17  O   UNL     1      45.737  21.171  22.207  0.00  0.00    -0.565 OA
ATOM     18  H   UNL     1      46.497  20.975  22.772  0.00  0.00    +0.384 HD
ENDBRANCH  16  17
BRANCH  19  20
ATOM     20  C   UNL     1      47.554  19.261  21.926  0.00  0.00    +0.444 C 
ATOM     21  O   UNL     1      46.853  18.466  22.504  0.00  0.00    -0.448 OA
ENDBRANCH  19  20
TORSDOF 3
ENDMDL
MODEL 2
REMARK VINA RESULT:      -5.6      1.198      1.352
REMARK  Name = ZINC15250727
REMARK  6 active torsions:
REMARK  status: ('A' for Active; 'I' for Inactive)
REMARK    1  A    between atoms: C1_1  and  C2_2
REMARK    2  A    between atoms: C2_2  and  C20_26
REMARK    3  A    between atoms: C6_6  and  C19_25
REMARK    4  A    between atoms: C10_11  and  C18_23
REMARK    5  A    between atoms: C14_16  and  C17_21
REMARK    6  A    between atoms: C16_18  and  O1_20
REMARK                            x       y       z     vdW  Elec       q    Type
REMARK                         _______ _______ _______ _____ _____    ______ ____
ROOT
ATOM      1  C   UNL     1      51.807  19.754  16.249  0.00  0.00    +0.011 C 
ATOM      2  C   UNL     1      51.426  18.771  17.386  0.00  0.00    -0.047 C 
ATOM      3  C   UNL     1      52.589  18.776  18.381  0.00  0.00    +0.021 C 
ATOM      4  C   UNL     1      51.306  17.395  16.737  0.00  0.00    +0.011 C 
ATOM      5  C   UNL     1      50.525  16.399  17.582  0.00  0.00    +0.003 C 
ATOM      6  C   UNL     1      49.155  16.987  17.931  0.00  0.00    +0.023 C 
ATOM      7  C   UNL     1      49.361  18.232  18.815  0.00  0.00    -0.038 C 
ATOM      8  C   UNL     1      50.119  17.759  20.056  0.00  0.00    +0.027 C 
ATOM      9  C   UNL     1      47.991  18.819  19.199  0.00  0.00    +0.039 C 
ATOM     10  C   UNL     1      47.163  18.921  17.909  0.00  0.00    +0.061 C 
ATOM     11  C   UNL     1      45.687  18.803  18.212  0.00  0.00    +0.062 C 
ATOM     12  C   UNL     1      45.051  19.868  18.654  0.00  0.00    -0.225 C 
ATOM     15  C   UNL     1      45.861  21.113  18.961  0.00  0.00    +0.065 C 
ATOM     16  C   UNL     1      46.718  20.815  20.177  0.00  0.00    +0.185 C 
ATOM     19  C   UNL     1      48.070  20.174  19.866  0.00  0.00    -0.096 C 
ATOM     22  C   UNL     1      48.942  21.151  19.086  0.00  0.00    +0.043 C 
ATOM     23  C   UNL     1      50.322  20.541  18.812  0.00  0.00    +0.018 C 
ATOM     24  C   UNL     1      50.133  19.259  18.002  0.00  0.00    +0.005 C 
ENDROOT
BRANCH  12  13
ATOM     13  C   UNL     1      43.613  19.839  18.901  0.00  0.00    +0.474 C 
ATOM     14  O   UNL     1      43.018  20.868  19.138  0.00  0.00    -0.458 OA
ENDBRANCH  12  13
BRANCH  16  17
ATOM     17  O   UNL     1      46.950  22.027  20.904  0.00  0.00    -0.565 OA
ATOM     18  H   UNL     1      46.551  22.810  20.501  0.00  0.00    +0.384 HD
ENDBRANCH  16  17
BRANCH  19  20
ATOM     20  C   UNL     1      48.677  20.046  21.250  0.00  0.00    +0.444 C 
ATOM     21  O   UNL     1      48.002  19.659  22.173  0.00  0.00    -0.448 OA
ENDBRANCH  19  20
TORSDOF 3
ENDMDL
MODEL 3
REMARK VINA RESULT:      -5.3      2.080      3.066
REMARK  Name = ZINC15250727
REMARK  6 active torsions:
REMARK  status: ('A' for Active; 'I' for Inactive)
REMARK    1  A    between atoms: C1_1  and  C2_2
REMARK    2  A    between atoms: C2_2  and  C20_26
REMARK    3  A    between atoms: C6_6  and  C19_25
REMARK    4  A    between atoms: C10_11  and  C18_23
REMARK    5  A    between atoms: C14_16  and  C17_21
REMARK    6  A    between atoms: C16_18  and  O1_20
REMARK                            x       y       z     vdW  Elec       q    Type
REMARK                         _______ _______ _______ _____ _____    ______ ____
ROOT
ATOM      1  C   UNL     1      51.091  21.323  16.884  0.00  0.00    +0.011 C 
ATOM      2  C   UNL     1      51.411  20.493  18.154  0.00  0.00    -0.047 C 
ATOM      3  C   UNL     1      51.876  21.484  19.223  0.00  0.00    +0.021 C 
ATOM      4  C   UNL     1      52.561  19.563  17.776  0.00  0.00    +0.011 C 
ATOM      5  C   UNL     1      52.719  18.387  18.730  0.00  0.00    +0.003 C 
ATOM      6  C   UNL     1      51.390  17.636  18.842  0.00  0.00    +0.023 C 
ATOM      7  C   UNL     1      50.346  18.569  19.482  0.00  0.00    -0.038 C 
ATOM      8  C   UNL     1      50.902  18.966  20.850  0.00  0.00    +0.027 C 
ATOM      9  C   UNL     1      49.010  17.820  19.629  0.00  0.00    +0.039 C 
ATOM     10  C   UNL     1      48.715  17.149  18.279  0.00  0.00    +0.061 C 
ATOM     11  C   UNL     1      47.892  15.897  18.474  0.00  0.00    +0.062 C 
ATOM     12  C   UNL     1      46.592  16.023  18.646  0.00  0.00    -0.225 C 
ATOM     15  C   UNL     1      46.016  17.421  18.774  0.00  0.00    +0.065 C 
ATOM     16  C   UNL     1      46.497  17.998  20.092  0.00  0.00    +0.185 C 
ATOM     19  C   UNL     1      47.850  18.705  20.025  0.00  0.00    -0.096 C 
ATOM     22  C   UNL     1      47.745  19.947  19.146  0.00  0.00    +0.043 C 
ATOM     23  C   UNL     1      49.082  20.697  19.112  0.00  0.00    +0.018 C 
ATOM     24  C   UNL     1      50.151  19.759  18.553  0.00  0.00    +0.005 C 
ENDROOT
BRANCH  12  13
ATOM     13  C   UNL     1      45.731  14.852  18.773  0.00  0.00    +0.474 C 
ATOM     14  O   UNL     1      45.178  14.617  19.826  0.00  0.00    -0.458 OA
ENDBRANCH  12  13
BRANCH  16  17
ATOM     17  O   UNL     1      45.526  18.926  20.587  0.00  0.00    -0.565 OA
ATOM     18  H   UNL     1      44.614  18.608  20.532  0.00  0.00    +0.384 HD
ENDBRANCH  16  17
BRANCH  19  20
ATOM     20  C   UNL     1      48.018  19.187  21.453  0.00  0.00    +0.444 C 
ATOM     21  O   UNL     1      47.727  18.461  22.374  0.00  0.00    -0.448 OA
ENDBRANCH  19  20
TORSDOF 3
ENDMDL
MODEL 4
REMARK VINA RESULT:      -5.3      1.915      3.210
REMARK  Name = ZINC15250727
REMARK  6 active torsions:
REMARK  status: ('A' for Active; 'I' for Inactive)
REMARK    1  A    between atoms: C1_1  and  C2_2
REMARK    2  A    between atoms: C2_2  and  C20_26
REMARK    3  A    between atoms: C6_6  and  C19_25
REMARK    4  A    between atoms: C10_11  and  C18_23
REMARK    5  A    between atoms: C14_16  and  C17_21
REMARK    6  A    between atoms: C16_18  and  O1_20
REMARK                            x       y       z     vdW  Elec       q    Type
REMARK                         _______ _______ _______ _____ _____    ______ ____
ROOT
ATOM      1  C   UNL     1      52.008  18.859  21.528  0.00  0.00    +0.011 C 
ATOM      2  C   UNL     1      51.732  19.045  20.013  0.00  0.00    -0.047 C 
ATOM      3  C   UNL     1      52.542  17.971  19.284  0.00  0.00    +0.021 C 
ATOM      4  C   UNL     1      52.264  20.429  19.651  0.00  0.00    +0.011 C 
ATOM      5  C   UNL     1      51.701  20.962  18.340  0.00  0.00    +0.003 C 
ATOM      6  C   UNL     1      50.171  20.932  18.391  0.00  0.00    +0.023 C 
ATOM      7  C   UNL     1      49.707  19.467  18.491  0.00  0.00    -0.038 C 
ATOM      8  C   UNL     1      50.258  18.754  17.256  0.00  0.00    +0.027 C 
ATOM      9  C   UNL     1      48.169  19.416  18.513  0.00  0.00    +0.039 C 
ATOM     10  C   UNL     1      47.696  20.446  19.552  0.00  0.00    +0.061 C 
ATOM     11  C   UNL     1      46.329  20.978  19.190  0.00  0.00    +0.062 C 
ATOM     12  C   UNL     1      45.273  20.251  19.492  0.00  0.00    -0.225 C 
ATOM     15  C   UNL     1      45.496  18.864  20.063  0.00  0.00    +0.065 C 
ATOM     16  C   UNL     1      46.082  18.001  18.961  0.00  0.00    +0.185 C 
ATOM     19  C   UNL     1      47.604  18.054  18.848  0.00  0.00    -0.096 C 
ATOM     22  C   UNL     1      48.240  17.457  20.099  0.00  0.00    +0.043 C 
ATOM     23  C   UNL     1      49.769  17.455  19.977  0.00  0.00    +0.018 C 
ATOM     24  C   UNL     1      50.243  18.896  19.796  0.00  0.00    +0.005 C 
ENDROOT
BRANCH  12  13
ATOM     13  C   UNL     1      43.923  20.738  19.232  0.00  0.00    +0.474 C 
ATOM     14  O   UNL     1      43.174  20.099  18.524  0.00  0.00    -0.458 OA
ENDBRANCH  12  13
BRANCH  16  17
ATOM     17  O   UNL     1      45.691  16.639  19.163  0.00  0.00    -0.565 OA
ATOM     18  H   UNL     1      44.809  16.536  19.548  0.00  0.00    +0.384 HD
ENDBRANCH  16  17
BRANCH  19  20
ATOM     20  C   UNL     1      47.865  17.083  17.712  0.00  0.00    +0.444 C 
ATOM     21  O   UNL     1      47.175  17.113  16.721  0.00  0.00    -0.448 OA
ENDBRANCH  19  20
TORSDOF 3
ENDMDL
MODEL 5
REMARK VINA RESULT:      -5.2      4.258      6.082
REMARK  Name = ZINC15250727
REMARK  6 active torsions:
REMARK  status: ('A' for Active; 'I' for Inactive)
REMARK    1  A    between atoms: C1_1  and  C2_2
REMARK    2  A    between atoms: C2_2  and  C20_26
REMARK    3  A    between atoms: C6_6  and  C19_25
REMARK    4  A    between atoms: C10_11  and  C18_23
REMARK    5  A    between atoms: C14_16  and  C17_21
REMARK    6  A    between atoms: C16_18  and  O1_20
REMARK                            x       y       z     vdW  Elec       q    Type
REMARK                         _______ _______ _______ _____ _____    ______ ____
ROOT
ATOM      1  C   UNL     1      52.663  19.982  22.062  0.00  0.00    +0.011 C 
ATOM      2  C   UNL     1      51.630  20.577  21.070  0.00  0.00    -0.047 C 
ATOM      3  C   UNL     1      52.212  21.901  20.570  0.00  0.00    +0.021 C 
ATOM      4  C   UNL     1      50.365  20.842  21.882  0.00  0.00    +0.011 C 
ATOM      5  C   UNL     1      49.122  21.007  21.019  0.00  0.00    +0.003 C 
ATOM      6  C   UNL     1      48.969  19.789  20.104  0.00  0.00    +0.023 C 
ATOM      7  C   UNL     1      50.164  19.746  19.133  0.00  0.00    -0.038 C 
ATOM      8  C   UNL     1      50.134  21.061  18.353  0.00  0.00    +0.027 C 
ATOM      9  C   UNL     1      50.012  18.543  18.185  0.00  0.00    +0.039 C 
ATOM     10  C   UNL     1      49.684  17.319  19.055  0.00  0.00    +0.061 C 
ATOM     11  C   UNL     1      48.862  16.317  18.277  0.00  0.00    +0.062 C 
ATOM     12  C   UNL     1      49.485  15.506  17.447  0.00  0.00    -0.225 C 
ATOM     15  C   UNL     1      50.969  15.715  17.217  0.00  0.00    +0.065 C 
ATOM     16  C   UNL     1      51.140  17.020  16.463  0.00  0.00    +0.185 C 
ATOM     19  C   UNL     1      51.238  18.262  17.347  0.00  0.00    -0.096 C 
ATOM     22  C   UNL     1      52.510  18.204  18.186  0.00  0.00    +0.043 C 
ATOM     23  C   UNL     1      52.649  19.470  19.041  0.00  0.00    +0.018 C 
ATOM     24  C   UNL     1      51.431  19.573  19.957  0.00  0.00    +0.005 C 
ENDROOT
BRANCH  12  13
ATOM     13  C   UNL     1      48.759  14.472  16.717  0.00  0.00    +0.474 C 
ATOM     14  O   UNL     1      49.365  13.673  16.035  0.00  0.00    -0.458 OA
ENDBRANCH  12  13
BRANCH  16  17
ATOM     17  O   UNL     1      52.317  16.950  15.650  0.00  0.00    -0.565 OA
ATOM     18  H   UNL     1      52.147  16.698  14.732  0.00  0.00    +0.384 HD
ENDBRANCH  16  17
BRANCH  19  20
ATOM     20  C   UNL     1      51.436  19.359  16.319  0.00  0.00    +0.444 C 
ATOM     21  O   UNL     1      52.545  19.625  15.924  0.00  0.00    -0.448 OA
ENDBRANCH  19  20
TORSDOF 3
ENDMDL
MODEL 6
REMARK VINA RESULT:      -5.2      1.634      2.598
REMARK  Name = ZINC15250727
REMARK  6 active torsions:
REMARK  status: ('A' for Active; 'I' for Inactive)
REMARK    1  A    between atoms: C1_1  and  C2_2
REMARK    2  A    between atoms: C2_2  and  C20_26
REMARK    3  A    between atoms: C6_6  and  C19_25
REMARK    4  A    between atoms: C10_11  and  C18_23
REMARK    5  A    between atoms: C14_16  and  C17_21
REMARK    6  A    between atoms: C16_18  and  O1_20
REMARK                            x       y       z     vdW  Elec       q    Type
REMARK                         _______ _______ _______ _____ _____    ______ ____
ROOT
ATOM      1  C   UNL     1      51.571  21.040  22.005  0.00  0.00    +0.011 C 
ATOM      2  C   UNL     1      51.329  20.391  20.617  0.00  0.00    -0.047 C 
ATOM      3  C   UNL     1      52.228  19.155  20.548  0.00  0.00    +0.021 C 
ATOM      4  C   UNL     1      51.781  21.418  19.583  0.00  0.00    +0.011 C 
ATOM      5  C   UNL     1      51.224  21.152  18.191  0.00  0.00    +0.003 C 
ATOM      6  C   UNL     1      49.699  21.044  18.262  0.00  0.00    +0.023 C 
ATOM      7  C   UNL     1      49.328  19.816  19.114  0.00  0.00    -0.038 C 
ATOM      8  C   UNL     1      49.961  18.606  18.427  0.00  0.00    +0.027 C 
ATOM      9  C   UNL     1      47.796  19.676  19.172  0.00  0.00    +0.039 C 
ATOM     10  C   UNL     1      47.227  21.058  19.526  0.00  0.00    +0.061 C 
ATOM     11  C   UNL     1      45.840  21.227  18.950  0.00  0.00    +0.062 C 
ATOM     12  C   UNL     1      44.824  20.691  19.596  0.00  0.00    -0.225 C 
ATOM     15  C   UNL     1      45.119  19.822  20.803  0.00  0.00    +0.065 C 
ATOM     16  C   UNL     1      45.792  18.556  20.307  0.00  0.00    +0.185 C 
ATOM     19  C   UNL     1      47.310  18.650  20.171  0.00  0.00    -0.096 C 
ATOM     22  C   UNL     1      47.945  18.837  21.545  0.00  0.00    +0.043 C 
ATOM     23  C   UNL     1      49.474  18.880  21.430  0.00  0.00    +0.018 C 
ATOM     24  C   UNL     1      49.860  20.046  20.521  0.00  0.00    +0.005 C 
ENDROOT
BRANCH  12  13
ATOM     13  C   UNL     1      43.454  20.874  19.130  0.00  0.00    +0.474 C 
ATOM     14  O   UNL     1      42.929  20.026  18.441  0.00  0.00    -0.458 OA
ENDBRANCH  12  13
BRANCH  16  17
ATOM     17  O   UNL     1      45.483  17.474  21.193  0.00  0.00    -0.565 OA
ATOM     18  H   UNL     1      44.986  16.756  20.778  0.00  0.00    +0.384 HD
ENDBRANCH  16  17
BRANCH  19  20
ATOM     20  C   UNL     1      47.667  17.252  19.705  0.00  0.00    +0.444 C 
ATOM     21  O   UNL     1      46.993  16.704  18.866  0.00  0.00    -0.448 OA
ENDBRANCH  19  20
TORSDOF 3
ENDMDL
MODEL 7
REMARK VINA RESULT:      -5.0      2.452      5.921
REMARK  Name = ZINC15250727
REMARK  6 active torsions:
REMARK  status: ('A' for Active; 'I' for Inactive)
REMARK    1  A    between atoms: C1_1  and  C2_2
REMARK    2  A    between atoms: C2_2  and  C20_26
REMARK    3  A    between atoms: C6_6  and  C19_25
REMARK    4  A    between atoms: C10_11  and  C18_23
REMARK    5  A    between atoms: C14_16  and  C17_21
REMARK    6  A    between atoms: C16_18  and  O1_20
REMARK                            x       y       z     vdW  Elec       q    Type
REMARK                         _______ _______ _______ _____ _____    ______ ____
ROOT
ATOM      1  C   UNL     1      43.568  20.081  18.830  0.00  0.00    +0.011 C 
ATOM      2  C   UNL     1      44.409  20.281  20.118  0.00  0.00    -0.047 C 
ATOM      3  C   UNL     1      43.730  19.464  21.218  0.00  0.00    +0.021 C 
ATOM      4  C   UNL     1      44.328  21.768  20.451  0.00  0.00    +0.011 C 
ATOM      5  C   UNL     1      45.423  22.229  21.403  0.00  0.00    +0.003 C 
ATOM      6  C   UNL     1      46.792  21.845  20.833  0.00  0.00    +0.023 C 
ATOM      7  C   UNL     1      46.891  20.309  20.777  0.00  0.00    -0.038 C 
ATOM      8  C   UNL     1      46.702  19.811  22.210  0.00  0.00    +0.027 C 
ATOM      9  C   UNL     1      48.273  19.905  20.233  0.00  0.00    +0.039 C 
ATOM     10  C   UNL     1      48.524  20.739  18.967  0.00  0.00    +0.061 C 
ATOM     11  C   UNL     1      50.004  20.962  18.761  0.00  0.00    +0.062 C 
ATOM     12  C   UNL     1      50.713  19.996  18.214  0.00  0.00    -0.225 C 
ATOM     15  C   UNL     1      50.032  18.667  17.947  0.00  0.00    +0.065 C 
ATOM     16  C   UNL     1      49.734  18.025  19.288  0.00  0.00    +0.185 C 
ATOM     19  C   UNL     1      48.399  18.433  19.911  0.00  0.00    -0.096 C 
ATOM     22  C   UNL     1      47.247  17.930  19.048  0.00  0.00    +0.043 C 
ATOM     23  C   UNL     1      45.900  18.287  19.688  0.00  0.00    +0.018 C 
ATOM     24  C   UNL     1      45.815  19.806  19.826  0.00  0.00    +0.005 C 
ENDROOT
BRANCH  12  13
ATOM     13  C   UNL     1      52.132  20.172  17.925  0.00  0.00    +0.474 C 
ATOM     14  O   UNL     1      52.909  19.261  18.120  0.00  0.00    -0.458 OA
ENDBRANCH  12  13
BRANCH  16  17
ATOM     17  O   UNL     1      49.750  16.600  19.148  0.00  0.00    -0.565 OA
ATOM     18  H   UNL     1      49.067  16.255  18.556  0.00  0.00    +0.384 HD
ENDBRANCH  16  17
BRANCH  19  20
ATOM     20  C   UNL     1      48.389  17.612  21.186  0.00  0.00    +0.444 C 
ATOM     21  O   UNL     1      49.388  17.526  21.858  0.00  0.00    -0.448 OA
ENDBRANCH  19  20
TORSDOF 3
ENDMDL
MODEL 8
REMARK VINA RESULT:      -4.9      2.704      4.056
REMARK  Name = ZINC15250727
REMARK  6 active torsions:
REMARK  status: ('A' for Active; 'I' for Inactive)
REMARK    1  A    between atoms: C1_1  and  C2_2
REMARK    2  A    between atoms: C2_2  and  C20_26
REMARK    3  A    between atoms: C6_6  and  C19_25
REMARK    4  A    between atoms: C10_11  and  C18_23
REMARK    5  A    between atoms: C14_16  and  C17_21
REMARK    6  A    between atoms: C16_18  and  O1_20
REMARK                            x       y       z     vdW  Elec       q    Type
REMARK                         _______ _______ _______ _____ _____    ______ ____
ROOT
ATOM      1  C   UNL     1      50.933  21.256  17.637  0.00  0.00    +0.011 C 
ATOM      2  C   UNL     1      51.151  20.184  18.737  0.00  0.00    -0.047 C 
ATOM      3  C   UNL     1      51.187  20.927  20.074  0.00  0.00    +0.021 C 
ATOM      4  C   UNL     1      52.513  19.557  18.456  0.00  0.00    +0.011 C 
ATOM      5  C   UNL     1      52.707  18.212  19.143  0.00  0.00    +0.003 C 
ATOM      6  C   UNL     1      51.557  17.274  18.766  0.00  0.00    +0.023 C 
ATOM      7  C   UNL     1      50.243  17.853  19.321  0.00  0.00    -0.038 C 
ATOM      8  C   UNL     1      50.424  17.963  20.835  0.00  0.00    +0.027 C 
ATOM      9  C   UNL     1      49.079  16.907  18.976  0.00  0.00    +0.039 C 
ATOM     10  C   UNL     1      49.199  16.567  17.482  0.00  0.00    +0.061 C 
ATOM     11  C   UNL     1      48.617  15.202  17.198  0.00  0.00    +0.062 C 
ATOM     12  C   UNL     1      47.310  15.091  17.074  0.00  0.00    -0.225 C 
ATOM     15  C   UNL     1      46.456  16.312  17.357  0.00  0.00    +0.065 C 
ATOM     16  C   UNL     1      46.540  16.598  18.844  0.00  0.00    +0.185 C 
ATOM     19  C   UNL     1      47.712  17.485  19.261  0.00  0.00    -0.096 C 
ATOM     22  C   UNL     1      47.542  18.882  18.672  0.00  0.00    +0.043 C 
ATOM     23  C   UNL     1      48.684  19.800  19.125  0.00  0.00    +0.018 C 
ATOM     24  C   UNL     1      50.006  19.199  18.651  0.00  0.00    +0.005 C 
ENDROOT
BRANCH  12  13
ATOM     13  C   UNL     1      46.690  13.815  16.733  0.00  0.00    +0.474 C 
ATOM     14  O   UNL     1      47.051  13.210  15.746  0.00  0.00    -0.458 OA
ENDBRANCH  12  13
BRANCH  16  17
ATOM     17  O   UNL     1      45.326  17.219  19.279  0.00  0.00    -0.565 OA
ATOM     18  H   UNL     1      44.792  17.585  18.560  0.00  0.00    +0.384 HD
ENDBRANCH  16  17
BRANCH  19  20
ATOM     20  C   UNL     1      47.493  17.606  20.757  0.00  0.00    +0.444 C 
ATOM     21  O   UNL     1      47.188  16.633  21.403  0.00  0.00    -0.448 OA
ENDBRANCH  19  20
TORSDOF 3
ENDMDL
MODEL 9
REMARK VINA RESULT:      -4.8      2.982      5.459
REMARK  Name = ZINC15250727
REMARK  6 active torsions:
REMARK  status: ('A' for Active; 'I' for Inactive)
REMARK    1  A    between atoms: C1_1  and  C2_2
REMARK    2  A    between atoms: C2_2  and  C20_26
REMARK    3  A    between atoms: C6_6  and  C19_25
REMARK    4  A    between atoms: C10_11  and  C18_23
REMARK    5  A    between atoms: C14_16  and  C17_21
REMARK    6  A    between atoms: C16_18  and  O1_20
REMARK                            x       y       z     vdW  Elec       q    Type
REMARK                         _______ _______ _______ _____ _____    ______ ____
ROOT
ATOM      1  C   UNL     1      47.638  14.214  21.006  0.00  0.00    +0.011 C 
ATOM      2  C   UNL     1      46.888  14.925  19.850  0.00  0.00    -0.047 C 
ATOM      3  C   UNL     1      45.447  15.130  20.321  0.00  0.00    +0.021 C 
ATOM      4  C   UNL     1      46.914  13.959  18.669  0.00  0.00    +0.011 C 
ATOM      5  C   UNL     1      46.626  14.635  17.335  0.00  0.00    +0.003 C 
ATOM      6  C   UNL     1      47.591  15.807  17.136  0.00  0.00    +0.023 C 
ATOM      7  C   UNL     1      47.315  16.864  18.221  0.00  0.00    -0.038 C 
ATOM      8  C   UNL     1      45.854  17.285  18.054  0.00  0.00    +0.027 C 
ATOM      9  C   UNL     1      48.257  18.064  18.018  0.00  0.00    +0.039 C 
ATOM     10  C   UNL     1      49.676  17.501  17.835  0.00  0.00    +0.061 C 
ATOM     11  C   UNL     1      50.509  18.425  16.977  0.00  0.00    +0.062 C 
ATOM     12  C   UNL     1      51.049  19.486  17.541  0.00  0.00    -0.225 C 
ATOM     15  C   UNL     1      50.693  19.793  18.983  0.00  0.00    +0.065 C 
ATOM     16  C   UNL     1      49.235  20.210  19.019  0.00  0.00    +0.185 C 
ATOM     19  C   UNL     1      48.243  19.056  19.159  0.00  0.00    -0.096 C 
ATOM     22  C   UNL     1      48.421  18.380  20.514  0.00  0.00    +0.043 C 
ATOM     23  C   UNL     1      47.395  17.253  20.692  0.00  0.00    +0.018 C 
ATOM     24  C   UNL     1      47.600  16.231  19.575  0.00  0.00    +0.005 C 
ENDROOT
BRANCH  12  13
ATOM     13  C   UNL     1      51.919  20.381  16.785  0.00  0.00    +0.474 C 
ATOM     14  O   UNL     1      51.487  21.430  16.358  0.00  0.00    -0.458 OA
ENDBRANCH  12  13
BRANCH  16  17
ATOM     17  O   UNL     1      49.027  21.120  20.105  0.00  0.00    -0.565 OA
ATOM     18  H   UNL     1      49.639  21.868  20.114  0.00  0.00    +0.384 HD
ENDBRANCH  16  17
BRANCH  19  20
ATOM     20  C   UNL     1      46.917  19.791  19.201  0.00  0.00    +0.444 C 
ATOM     21  O   UNL     1      46.712  20.711  18.447  0.00  0.00    -0.448 OA
ENDBRANCH  19  20
TORSDOF 3
ENDMDL
