MODEL 1
REMARK VINA RESULT:      -6.7      0.000      0.000
REMARK  Name = ZINC13372804
REMARK  8 active torsions:
REMARK  status: ('A' for Active; 'I' for Inactive)
REMARK    1  A    between atoms: C1_1  and  N1_2
REMARK    2  A    between atoms: N1_2  and  C3_5
REMARK    3  A    between atoms: C4_6  and  C14_18
REMARK    4  A    between atoms: C16_20  and  O6_27
REMARK    5  A    between atoms: C17_21  and  O5_26
REMARK    6  A    between atoms: C19_23  and  O4_24
REMARK    7  A    between atoms: O4_24  and  C20_25
REMARK    8  A    between atoms: O6_27  and  C21_28
REMARK                            x       y       z     vdW  Elec       q    Type
REMARK                         _______ _______ _______ _____ _____    ______ ____
ROOT
ATOM      3  C   UNL     1      46.344  19.667  19.805  0.00  0.00    +0.176 A 
ATOM      4  C   UNL     1      45.395  18.677  19.582  0.00  0.00    -0.020 A 
ATOM     17  C   UNL     1      45.713  17.546  18.816  0.00  0.00    +0.039 A 
ATOM     18  C   UNL     1      46.949  17.398  18.269  0.00  0.00    +0.042 A 
ATOM     19  C   UNL     1      47.935  18.380  18.474  0.00  0.00    -0.031 A 
ATOM     20  C   UNL     1      49.219  18.241  17.921  0.00  0.00    +0.048 A 
ATOM     21  C   UNL     1      50.158  19.209  18.133  0.00  0.00    +0.047 A 
ATOM     22  O   UNL     1      51.454  19.305  17.711  0.00  0.00    -0.306 OA
ATOM     23  C   UNL     1      51.809  20.691  17.872  0.00  0.00    +0.434 C 
ATOM     24  O   UNL     1      50.967  21.142  18.946  0.00  0.00    -0.306 OA
ATOM     25  C   UNL     1      49.856  20.347  18.900  0.00  0.00    +0.047 A 
ATOM     26  C   UNL     1      48.617  20.507  19.450  0.00  0.00    +0.046 A 
ATOM     27  C   UNL     1      47.631  19.528  19.250  0.00  0.00    -0.032 A 
ENDROOT
BRANCH   4   5
ATOM      5  C   UNL     1      44.038  18.815  20.162  0.00  0.00    -0.048 A 
ATOM      6  C   UNL     1      43.058  19.539  19.483  0.00  0.00    +0.008 A 
ATOM      7  C   UNL     1      41.793  19.666  20.026  0.00  0.00    +0.072 A 
ATOM     10  C   UNL     1      41.496  19.072  21.251  0.00  0.00    +0.120 A 
ATOM     13  C   UNL     1      42.467  18.353  21.929  0.00  0.00    -0.054 A 
ATOM     14  C   UNL     1      43.736  18.221  21.391  0.00  0.00    +0.127 A 
BRANCH   7   8
ATOM      8  O   UNL     1      40.837  20.373  19.364  0.00  0.00    -0.307 OA
ATOM      9  C   UNL     1      41.238  21.612  18.776  0.00  0.00    +0.240 C 
ENDBRANCH   7   8
BRANCH  10  11
ATOM     11  O   UNL     1      40.251  19.199  21.782  0.00  0.00    -0.484 OA
ATOM     12  H   UNL     1      40.209  19.028  22.732  0.00  0.00    +0.391 HD
ENDBRANCH  10  11
BRANCH  14  15
ATOM     15  O   UNL     1      44.687  17.514  22.056  0.00  0.00    -0.305 OA
ATOM     16  C   UNL     1      44.360  16.172  22.425  0.00  0.00    +0.237 C 
ENDBRANCH  14  15
ENDBRANCH   4   5
BRANCH   3   2
ATOM      1  C   UNL     1      46.157  20.739  22.032  0.00  0.00    +0.300 C 
ATOM      2  N   UNL     1      46.026  20.788  20.573  0.00  0.00    -0.579 N 
ATOM     28  C   UNL     1      45.598  21.916  19.972  0.00  0.00    +0.632 C 
ATOM     29  O   UNL     1      45.402  21.930  18.776  0.00  0.00    -0.531 OA
ENDBRANCH   3   2
TORSDOF 5
ENDMDL
MODEL 2
REMARK VINA RESULT:      -6.3      2.938      5.172
REMARK  Name = ZINC13372804
REMARK  8 active torsions:
REMARK  status: ('A' for Active; 'I' for Inactive)
REMARK    1  A    between atoms: C1_1  and  N1_2
REMARK    2  A    between atoms: N1_2  and  C3_5
REMARK    3  A    between atoms: C4_6  and  C14_18
REMARK    4  A    between atoms: C16_20  and  O6_27
REMARK    5  A    between atoms: C17_21  and  O5_26
REMARK    6  A    between atoms: C19_23  and  O4_24
REMARK    7  A    between atoms: O4_24  and  C20_25
REMARK    8  A    between atoms: O6_27  and  C21_28
REMARK                            x       y       z     vdW  Elec       q    Type
REMARK                         _______ _______ _______ _____ _____    ______ ____
ROOT
ATOM      3  C   UNL     1      44.266  18.247  20.409  0.00  0.00    +0.176 A 
ATOM      4  C   UNL     1      44.538  19.060  19.316  0.00  0.00    -0.020 A 
ATOM     17  C   UNL     1      45.331  18.590  18.259  0.00  0.00    +0.039 A 
ATOM     18  C   UNL     1      45.859  17.337  18.285  0.00  0.00    +0.042 A 
ATOM     19  C   UNL     1      45.604  16.486  19.375  0.00  0.00    -0.031 A 
ATOM     20  C   UNL     1      46.134  15.186  19.416  0.00  0.00    +0.048 A 
ATOM     21  C   UNL     1      45.874  14.378  20.486  0.00  0.00    +0.047 A 
ATOM     22  O   UNL     1      46.267  13.098  20.757  0.00  0.00    -0.306 OA
ATOM     23  C   UNL     1      46.057  12.922  22.171  0.00  0.00    +0.434 C 
ATOM     24  O   UNL     1      44.987  13.832  22.478  0.00  0.00    -0.306 OA
ATOM     25  C   UNL     1      45.080  14.833  21.552  0.00  0.00    +0.047 A 
ATOM     26  C   UNL     1      44.549  16.091  21.538  0.00  0.00    +0.046 A 
ATOM     27  C   UNL     1      44.800  16.943  20.450  0.00  0.00    -0.032 A 
ENDROOT
BRANCH   4   5
ATOM      5  C   UNL     1      43.981  20.433  19.264  0.00  0.00    -0.048 A 
ATOM      6  C   UNL     1      42.668  20.639  18.842  0.00  0.00    +0.008 A 
ATOM      7  C   UNL     1      42.151  21.920  18.795  0.00  0.00    +0.072 A 
ATOM     10  C   UNL     1      42.941  23.006  19.167  0.00  0.00    +0.120 A 
ATOM     13  C   UNL     1      44.246  22.805  19.586  0.00  0.00    -0.054 A 
ATOM     14  C   UNL     1      44.771  21.525  19.636  0.00  0.00    +0.127 A 
BRANCH   7   8
ATOM      8  O   UNL     1      40.870  22.122  18.383  0.00  0.00    -0.307 OA
ATOM      9  C   UNL     1      39.897  21.160  18.795  0.00  0.00    +0.240 C 
ENDBRANCH   7   8
BRANCH  10  11
ATOM     11  O   UNL     1      42.430  24.264  19.120  0.00  0.00    -0.484 OA
ATOM     12  H   UNL     1      43.070  24.940  18.858  0.00  0.00    +0.391 HD
ENDBRANCH  10  11
BRANCH  14  15
ATOM     15  O   UNL     1      46.051  21.329  20.048  0.00  0.00    -0.305 OA
ATOM     16  C   UNL     1      46.611  22.315  20.918  0.00  0.00    +0.237 C 
ENDBRANCH  14  15
ENDBRANCH   4   5
BRANCH   3   2
ATOM      1  C   UNL     1      42.018  18.524  21.415  0.00  0.00    +0.300 C 
ATOM      2  N   UNL     1      43.471  18.715  21.456  0.00  0.00    -0.579 N 
ATOM     28  C   UNL     1      44.039  19.343  22.504  0.00  0.00    +0.632 C 
ATOM     29  O   UNL     1      45.228  19.584  22.496  0.00  0.00    -0.531 OA
ENDBRANCH   3   2
TORSDOF 5
ENDMDL
MODEL 3
REMARK VINA RESULT:      -5.9      3.279      5.335
REMARK  Name = ZINC13372804
REMARK  8 active torsions:
REMARK  status: ('A' for Active; 'I' for Inactive)
REMARK    1  A    between atoms: C1_1  and  N1_2
REMARK    2  A    between atoms: N1_2  and  C3_5
REMARK    3  A    between atoms: C4_6  and  C14_18
REMARK    4  A    between atoms: C16_20  and  O6_27
REMARK    5  A    between atoms: C17_21  and  O5_26
REMARK    6  A    between atoms: C19_23  and  O4_24
REMARK    7  A    between atoms: O4_24  and  C20_25
REMARK    8  A    between atoms: O6_27  and  C21_28
REMARK                            x       y       z     vdW  Elec       q    Type
REMARK                         _______ _______ _______ _____ _____    ______ ____
ROOT
ATOM      3  C   UNL     1      44.336  18.311  20.417  0.00  0.00    +0.176 A 
ATOM      4  C   UNL     1      44.542  19.121  19.307  0.00  0.00    -0.020 A 
ATOM     17  C   UNL     1      45.280  18.650  18.210  0.00  0.00    +0.039 A 
ATOM     18  C   UNL     1      45.817  17.401  18.214  0.00  0.00    +0.042 A 
ATOM     19  C   UNL     1      45.628  16.554  19.320  0.00  0.00    -0.031 A 
ATOM     20  C   UNL     1      46.170  15.258  19.339  0.00  0.00    +0.048 A 
ATOM     21  C   UNL     1      45.975  14.455  20.426  0.00  0.00    +0.047 A 
ATOM     22  O   UNL     1      46.391  13.179  20.681  0.00  0.00    -0.306 OA
ATOM     23  C   UNL     1      46.261  13.009  22.105  0.00  0.00    +0.434 C 
ATOM     24  O   UNL     1      45.202  13.914  22.466  0.00  0.00    -0.306 OA
ATOM     25  C   UNL     1      45.237  14.910  21.531  0.00  0.00    +0.047 A 
ATOM     26  C   UNL     1      44.697  16.164  21.540  0.00  0.00    +0.046 A 
ATOM     27  C   UNL     1      44.881  17.012  20.436  0.00  0.00    -0.032 A 
ENDROOT
BRANCH   4   5
ATOM      5  C   UNL     1      43.974  20.489  19.278  0.00  0.00    -0.048 A 
ATOM      6  C   UNL     1      44.735  21.571  19.720  0.00  0.00    +0.008 A 
ATOM      7  C   UNL     1      44.203  22.847  19.691  0.00  0.00    +0.072 A 
ATOM     10  C   UNL     1      42.906  23.052  19.225  0.00  0.00    +0.120 A 
ATOM     13  C   UNL     1      42.147  21.980  18.787  0.00  0.00    -0.054 A 
ATOM     14  C   UNL     1      42.673  20.699  18.811  0.00  0.00    +0.127 A 
BRANCH   7   8
ATOM      8  O   UNL     1      44.945  23.903  20.122  0.00  0.00    -0.307 OA
ATOM      9  C   UNL     1      45.987  23.624  21.060  0.00  0.00    +0.240 C 
ENDBRANCH   7   8
BRANCH  10  11
ATOM     11  O   UNL     1      42.386  24.308  19.199  0.00  0.00    -0.484 OA
ATOM     12  H   UNL     1      42.402  24.758  20.055  0.00  0.00    +0.391 HD
ENDBRANCH  10  11
BRANCH  14  15
ATOM     15  O   UNL     1      41.928  19.648  18.380  0.00  0.00    -0.305 OA
ATOM     16  C   UNL     1      40.565  19.914  18.041  0.00  0.00    +0.237 C 
ENDBRANCH  14  15
ENDBRANCH   4   5
BRANCH   3   2
ATOM      1  C   UNL     1      42.149  18.557  21.556  0.00  0.00    +0.300 C 
ATOM      2  N   UNL     1      43.597  18.780  21.504  0.00  0.00    -0.579 N 
ATOM     28  C   UNL     1      44.214  19.438  22.505  0.00  0.00    +0.632 C 
ATOM     29  O   UNL     1      45.395  19.704  22.420  0.00  0.00    -0.531 OA
ENDBRANCH   3   2
TORSDOF 5
ENDMDL
MODEL 4
REMARK VINA RESULT:      -5.9      2.917      4.281
REMARK  Name = ZINC13372804
REMARK  8 active torsions:
REMARK  status: ('A' for Active; 'I' for Inactive)
REMARK    1  A    between atoms: C1_1  and  N1_2
REMARK    2  A    between atoms: N1_2  and  C3_5
REMARK    3  A    between atoms: C4_6  and  C14_18
REMARK    4  A    between atoms: C16_20  and  O6_27
REMARK    5  A    between atoms: C17_21  and  O5_26
REMARK    6  A    between atoms: C19_23  and  O4_24
REMARK    7  A    between atoms: O4_24  and  C20_25
REMARK    8  A    between atoms: O6_27  and  C21_28
REMARK                            x       y       z     vdW  Elec       q    Type
REMARK                         _______ _______ _______ _____ _____    ______ ____
ROOT
ATOM      3  C   UNL     1      47.857  18.995  19.155  0.00  0.00    +0.176 A 
ATOM      4  C   UNL     1      48.079  20.346  19.393  0.00  0.00    -0.020 A 
ATOM     17  C   UNL     1      49.260  20.962  18.952  0.00  0.00    +0.039 A 
ATOM     18  C   UNL     1      50.214  20.252  18.294  0.00  0.00    +0.042 A 
ATOM     19  C   UNL     1      50.023  18.883  18.034  0.00  0.00    -0.031 A 
ATOM     20  C   UNL     1      50.995  18.135  17.350  0.00  0.00    +0.048 A 
ATOM     21  C   UNL     1      50.788  16.806  17.112  0.00  0.00    +0.047 A 
ATOM     22  O   UNL     1      51.566  15.879  16.479  0.00  0.00    -0.306 OA
ATOM     23  C   UNL     1      51.051  14.599  16.890  0.00  0.00    +0.434 C 
ATOM     24  O   UNL     1      49.667  14.859  17.179  0.00  0.00    -0.306 OA
ATOM     25  C   UNL     1      49.610  16.175  17.545  0.00  0.00    +0.047 A 
ATOM     26  C   UNL     1      48.648  16.877  18.211  0.00  0.00    +0.046 A 
ATOM     27  C   UNL     1      48.833  18.245  18.470  0.00  0.00    -0.032 A 
ENDROOT
BRANCH   4   5
ATOM      5  C   UNL     1      47.059  21.143  20.115  0.00  0.00    -0.048 A 
ATOM      6  C   UNL     1      46.011  21.737  19.411  0.00  0.00    +0.008 A 
ATOM      7  C   UNL     1      45.060  22.479  20.087  0.00  0.00    +0.072 A 
ATOM     10  C   UNL     1      45.149  22.637  21.468  0.00  0.00    +0.120 A 
ATOM     13  C   UNL     1      46.189  22.049  22.170  0.00  0.00    -0.054 A 
ATOM     14  C   UNL     1      47.144  21.304  21.501  0.00  0.00    +0.127 A 
BRANCH   7   8
ATOM      8  O   UNL     1      44.037  23.059  19.401  0.00  0.00    -0.307 OA
ATOM      9  C   UNL     1      44.295  24.333  18.807  0.00  0.00    +0.240 C 
ENDBRANCH   7   8
BRANCH  10  11
ATOM     11  O   UNL     1      44.212  23.368  22.129  0.00  0.00    -0.484 OA
ATOM     12  H   UNL     1      44.271  23.305  23.092  0.00  0.00    +0.391 HD
ENDBRANCH  10  11
BRANCH  14  15
ATOM     15  O   UNL     1      48.164  20.727  22.190  0.00  0.00    -0.305 OA
ATOM     16  C   UNL     1      49.285  21.556  22.505  0.00  0.00    +0.237 C 
ENDBRANCH  14  15
ENDBRANCH   4   5
BRANCH   3   2
ATOM      1  C   UNL     1      46.610  17.798  20.930  0.00  0.00    +0.300 C 
ATOM      2  N   UNL     1      46.679  18.387  19.590  0.00  0.00    -0.579 N 
ATOM     28  C   UNL     1      45.605  18.341  18.777  0.00  0.00    +0.632 C 
ATOM     29  O   UNL     1      45.690  18.746  17.636  0.00  0.00    -0.531 OA
ENDBRANCH   3   2
TORSDOF 5
ENDMDL
MODEL 5
REMARK VINA RESULT:      -5.7      2.889      5.355
REMARK  Name = ZINC13372804
REMARK  8 active torsions:
REMARK  status: ('A' for Active; 'I' for Inactive)
REMARK    1  A    between atoms: C1_1  and  N1_2
REMARK    2  A    between atoms: N1_2  and  C3_5
REMARK    3  A    between atoms: C4_6  and  C14_18
REMARK    4  A    between atoms: C16_20  and  O6_27
REMARK    5  A    between atoms: C17_21  and  O5_26
REMARK    6  A    between atoms: C19_23  and  O4_24
REMARK    7  A    between atoms: O4_24  and  C20_25
REMARK    8  A    between atoms: O6_27  and  C21_28
REMARK                            x       y       z     vdW  Elec       q    Type
REMARK                         _______ _______ _______ _____ _____    ______ ____
ROOT
ATOM      3  C   UNL     1      45.430  17.811  19.726  0.00  0.00    +0.176 A 
ATOM      4  C   UNL     1      45.723  19.048  19.165  0.00  0.00    -0.020 A 
ATOM     17  C   UNL     1      46.365  19.131  17.921  0.00  0.00    +0.039 A 
ATOM     18  C   UNL     1      46.723  18.009  17.243  0.00  0.00    +0.042 A 
ATOM     19  C   UNL     1      46.443  16.739  17.780  0.00  0.00    -0.031 A 
ATOM     20  C   UNL     1      46.800  15.568  17.091  0.00  0.00    +0.048 A 
ATOM     21  C   UNL     1      46.518  14.347  17.634  0.00  0.00    +0.047 A 
ATOM     22  O   UNL     1      46.760  13.085  17.169  0.00  0.00    -0.306 OA
ATOM     23  C   UNL     1      46.637  12.224  18.316  0.00  0.00    +0.434 C 
ATOM     24  O   UNL     1      45.722  12.922  19.178  0.00  0.00    -0.306 OA
ATOM     25  C   UNL     1      45.874  14.247  18.878  0.00  0.00    +0.047 A 
ATOM     26  C   UNL     1      45.514  15.367  19.569  0.00  0.00    +0.046 A 
ATOM     27  C   UNL     1      45.790  16.637  19.035  0.00  0.00    -0.032 A 
ENDROOT
BRANCH   4   5
ATOM      5  C   UNL     1      45.349  20.289  19.885  0.00  0.00    -0.048 A 
ATOM      6  C   UNL     1      46.210  20.829  20.840  0.00  0.00    +0.008 A 
ATOM      7  C   UNL     1      45.859  21.986  21.509  0.00  0.00    +0.072 A 
ATOM     10  C   UNL     1      44.645  22.612  21.233  0.00  0.00    +0.120 A 
ATOM     13  C   UNL     1      43.787  22.078  20.285  0.00  0.00    -0.054 A 
ATOM     14  C   UNL     1      44.132  20.920  19.610  0.00  0.00    +0.127 A 
BRANCH   7   8
ATOM      8  O   UNL     1      46.698  22.514  22.441  0.00  0.00    -0.307 OA
ATOM      9  C   UNL     1      48.057  22.072  22.414  0.00  0.00    +0.240 C 
ENDBRANCH   7   8
BRANCH  10  11
ATOM     11  O   UNL     1      44.304  23.750  21.893  0.00  0.00    -0.484 OA
ATOM     12  H   UNL     1      44.223  24.527  21.323  0.00  0.00    +0.391 HD
ENDBRANCH  10  11
BRANCH  14  15
ATOM     15  O   UNL     1      43.290  20.397  18.681  0.00  0.00    -0.305 OA
ATOM     16  C   UNL     1      41.890  20.596  18.888  0.00  0.00    +0.237 C 
ENDBRANCH  14  15
ENDBRANCH   4   5
BRANCH   3   2
ATOM      1  C   UNL     1      43.324  17.800  21.031  0.00  0.00    +0.300 C 
ATOM      2  N   UNL     1      44.786  17.731  20.961  0.00  0.00    -0.579 N 
ATOM     28  C   UNL     1      45.509  17.591  22.090  0.00  0.00    +0.632 C 
ATOM     29  O   UNL     1      46.720  17.627  22.044  0.00  0.00    -0.531 OA
ENDBRANCH   3   2
TORSDOF 5
ENDMDL
MODEL 6
REMARK VINA RESULT:      -5.7      2.522      5.421
REMARK  Name = ZINC13372804
REMARK  8 active torsions:
REMARK  status: ('A' for Active; 'I' for Inactive)
REMARK    1  A    between atoms: C1_1  and  N1_2
REMARK    2  A    between atoms: N1_2  and  C3_5
REMARK    3  A    between atoms: C4_6  and  C14_18
REMARK    4  A    between atoms: C16_20  and  O6_27
REMARK    5  A    between atoms: C17_21  and  O5_26
REMARK    6  A    between atoms: C19_23  and  O4_24
REMARK    7  A    between atoms: O4_24  and  C20_25
REMARK    8  A    between atoms: O6_27  and  C21_28
REMARK                            x       y       z     vdW  Elec       q    Type
REMARK                         _______ _______ _______ _____ _____    ______ ____
ROOT
ATOM      3  C   UNL     1      45.101  18.306  20.513  0.00  0.00    +0.176 A 
ATOM      4  C   UNL     1      44.007  19.034  20.964  0.00  0.00    -0.020 A 
ATOM     17  C   UNL     1      43.139  18.491  21.924  0.00  0.00    +0.039 A 
ATOM     18  C   UNL     1      43.342  17.243  22.424  0.00  0.00    +0.042 A 
ATOM     19  C   UNL     1      44.440  16.479  21.990  0.00  0.00    -0.031 A 
ATOM     20  C   UNL     1      44.669  15.190  22.500  0.00  0.00    +0.048 A 
ATOM     21  C   UNL     1      45.741  14.466  22.063  0.00  0.00    +0.047 A 
ATOM     22  O   UNL     1      46.171  13.214  22.398  0.00  0.00    -0.306 OA
ATOM     23  C   UNL     1      47.069  12.820  21.344  0.00  0.00    +0.434 C 
ATOM     24  O   UNL     1      47.590  14.066  20.850  0.00  0.00    -0.306 OA
ATOM     25  C   UNL     1      46.620  14.995  21.103  0.00  0.00    +0.047 A 
ATOM     26  C   UNL     1      46.423  16.245  20.592  0.00  0.00    +0.046 A 
ATOM     27  C   UNL     1      45.329  17.013  21.024  0.00  0.00    -0.032 A 
ENDROOT
BRANCH   4   5
ATOM      5  C   UNL     1      43.757  20.394  20.432  0.00  0.00    -0.048 A 
ATOM      6  C   UNL     1      44.558  21.461  20.838  0.00  0.00    +0.008 A 
ATOM      7  C   UNL     1      44.324  22.729  20.339  0.00  0.00    +0.072 A 
ATOM     10  C   UNL     1      43.288  22.942  19.433  0.00  0.00    +0.120 A 
ATOM     13  C   UNL     1      42.490  21.885  19.027  0.00  0.00    -0.054 A 
ATOM     14  C   UNL     1      42.718  20.612  19.522  0.00  0.00    +0.127 A 
BRANCH   7   8
ATOM      8  O   UNL     1      45.105  23.771  20.736  0.00  0.00    -0.307 OA
ATOM      9  C   UNL     1      46.296  23.450  21.457  0.00  0.00    +0.240 C 
ENDBRANCH   7   8
BRANCH  10  11
ATOM     11  O   UNL     1      43.060  24.190  18.945  0.00  0.00    -0.484 OA
ATOM     12  H   UNL     1      42.144  24.486  19.033  0.00  0.00    +0.391 HD
ENDBRANCH  10  11
BRANCH  14  15
ATOM     15  O   UNL     1      41.936  19.575  19.123  0.00  0.00    -0.305 OA
ATOM     16  C   UNL     1      40.851  19.882  18.245  0.00  0.00    +0.237 C 
ENDBRANCH  14  15
ENDBRANCH   4   5
BRANCH   3   2
ATOM      1  C   UNL     1      45.654  18.734  18.135  0.00  0.00    +0.300 C 
ATOM      2  N   UNL     1      45.966  18.850  19.563  0.00  0.00    -0.579 N 
ATOM     28  C   UNL     1      47.089  19.482  19.958  0.00  0.00    +0.632 C 
ATOM     29  O   UNL     1      47.395  19.499  21.131  0.00  0.00    -0.531 OA
ENDBRANCH   3   2
TORSDOF 5
ENDMDL
MODEL 7
REMARK VINA RESULT:      -5.6      4.126      8.102
REMARK  Name = ZINC13372804
REMARK  8 active torsions:
REMARK  status: ('A' for Active; 'I' for Inactive)
REMARK    1  A    between atoms: C1_1  and  N1_2
REMARK    2  A    between atoms: N1_2  and  C3_5
REMARK    3  A    between atoms: C4_6  and  C14_18
REMARK    4  A    between atoms: C16_20  and  O6_27
REMARK    5  A    between atoms: C17_21  and  O5_26
REMARK    6  A    between atoms: C19_23  and  O4_24
REMARK    7  A    between atoms: O4_24  and  C20_25
REMARK    8  A    between atoms: O6_27  and  C21_28
REMARK                            x       y       z     vdW  Elec       q    Type
REMARK                         _______ _______ _______ _____ _____    ______ ____
ROOT
ATOM      3  C   UNL     1      46.346  15.511  18.655  0.00  0.00    +0.176 A 
ATOM      4  C   UNL     1      47.057  15.805  17.498  0.00  0.00    -0.020 A 
ATOM     17  C   UNL     1      47.025  17.098  16.953  0.00  0.00    +0.039 A 
ATOM     18  C   UNL     1      46.292  18.084  17.535  0.00  0.00    +0.042 A 
ATOM     19  C   UNL     1      45.561  17.822  18.708  0.00  0.00    -0.031 A 
ATOM     20  C   UNL     1      44.804  18.830  19.328  0.00  0.00    +0.048 A 
ATOM     21  C   UNL     1      44.101  18.551  20.465  0.00  0.00    +0.047 A 
ATOM     22  O   UNL     1      43.303  19.344  21.240  0.00  0.00    -0.306 OA
ATOM     23  C   UNL     1      42.514  18.438  22.033  0.00  0.00    +0.434 C 
ATOM     24  O   UNL     1      43.339  17.265  22.143  0.00  0.00    -0.306 OA
ATOM     25  C   UNL     1      44.124  17.262  21.024  0.00  0.00    +0.047 A 
ATOM     26  C   UNL     1      44.852  16.264  20.445  0.00  0.00    +0.046 A 
ATOM     27  C   UNL     1      45.586  16.522  19.275  0.00  0.00    -0.032 A 
ENDROOT
BRANCH   4   5
ATOM      5  C   UNL     1      47.859  14.748  16.838  0.00  0.00    -0.048 A 
ATOM      6  C   UNL     1      47.237  13.817  16.007  0.00  0.00    +0.008 A 
ATOM      7  C   UNL     1      47.988  12.832  15.392  0.00  0.00    +0.072 A 
ATOM     10  C   UNL     1      49.364  12.767  15.604  0.00  0.00    +0.120 A 
ATOM     13  C   UNL     1      49.984  13.691  16.430  0.00  0.00    -0.054 A 
ATOM     14  C   UNL     1      49.239  14.680  17.048  0.00  0.00    +0.127 A 
BRANCH   7   8
ATOM      8  O   UNL     1      47.383  11.922  14.581  0.00  0.00    -0.307 OA
ATOM      9  C   UNL     1      46.563  10.936  15.211  0.00  0.00    +0.240 C 
ENDBRANCH   7   8
BRANCH  10  11
ATOM     11  O   UNL     1      50.098  11.798  14.998  0.00  0.00    -0.484 OA
ATOM     12  H   UNL     1      49.660  10.936  14.963  0.00  0.00    +0.391 HD
ENDBRANCH  10  11
BRANCH  14  15
ATOM     15  O   UNL     1      49.849  15.586  17.858  0.00  0.00    -0.305 OA
ATOM     16  C   UNL     1      50.775  16.486  17.243  0.00  0.00    +0.237 C 
ENDBRANCH  14  15
ENDBRANCH   4   5
BRANCH   3   2
ATOM      1  C   UNL     1      45.378  13.235  18.810  0.00  0.00    +0.300 C 
ATOM      2  N   UNL     1      46.385  14.226  19.199  0.00  0.00    -0.579 N 
ATOM     28  C   UNL     1      47.349  13.898  20.082  0.00  0.00    +0.632 C 
ATOM     29  O   UNL     1      48.127  14.742  20.474  0.00  0.00    -0.531 OA
ENDBRANCH   3   2
TORSDOF 5
ENDMDL
MODEL 8
REMARK VINA RESULT:      -5.6      2.381      7.426
REMARK  Name = ZINC13372804
REMARK  8 active torsions:
REMARK  status: ('A' for Active; 'I' for Inactive)
REMARK    1  A    between atoms: C1_1  and  N1_2
REMARK    2  A    between atoms: N1_2  and  C3_5
REMARK    3  A    between atoms: C4_6  and  C14_18
REMARK    4  A    between atoms: C16_20  and  O6_27
REMARK    5  A    between atoms: C17_21  and  O5_26
REMARK    6  A    between atoms: C19_23  and  O4_24
REMARK    7  A    between atoms: O4_24  and  C20_25
REMARK    8  A    between atoms: O6_27  and  C21_28
REMARK                            x       y       z     vdW  Elec       q    Type
REMARK                         _______ _______ _______ _____ _____    ______ ____
ROOT
ATOM      3  C   UNL     1      47.078  18.968  18.752  0.00  0.00    +0.176 A 
ATOM      4  C   UNL     1      48.318  19.481  19.113  0.00  0.00    -0.020 A 
ATOM     17  C   UNL     1      48.420  20.753  19.695  0.00  0.00    +0.039 A 
ATOM     18  C   UNL     1      47.314  21.515  19.909  0.00  0.00    +0.042 A 
ATOM     19  C   UNL     1      46.042  21.028  19.557  0.00  0.00    -0.031 A 
ATOM     20  C   UNL     1      44.888  21.797  19.776  0.00  0.00    +0.048 A 
ATOM     21  C   UNL     1      43.664  21.303  19.424  0.00  0.00    +0.047 A 
ATOM     22  O   UNL     1      42.416  21.847  19.532  0.00  0.00    -0.306 OA
ATOM     23  C   UNL     1      41.584  21.082  18.641  0.00  0.00    +0.434 C 
ATOM     24  O   UNL     1      42.222  19.794  18.592  0.00  0.00    -0.306 OA
ATOM     25  C   UNL     1      43.545  20.031  18.842  0.00  0.00    +0.047 A 
ATOM     26  C   UNL     1      44.649  19.260  18.619  0.00  0.00    +0.046 A 
ATOM     27  C   UNL     1      45.920  19.741  18.971  0.00  0.00    -0.032 A 
ENDROOT
BRANCH   4   5
ATOM      5  C   UNL     1      49.541  18.676  18.886  0.00  0.00    -0.048 A 
ATOM      6  C   UNL     1      50.180  18.710  17.646  0.00  0.00    +0.008 A 
ATOM      7  C   UNL     1      51.321  17.958  17.437  0.00  0.00    +0.072 A 
ATOM     10  C   UNL     1      51.832  17.164  18.462  0.00  0.00    +0.120 A 
ATOM     13  C   UNL     1      51.200  17.128  19.695  0.00  0.00    -0.054 A 
ATOM     14  C   UNL     1      50.057  17.878  19.912  0.00  0.00    +0.127 A 
BRANCH   7   8
ATOM      8  O   UNL     1      51.944  17.990  16.228  0.00  0.00    -0.307 OA
ATOM      9  C   UNL     1      52.150  19.275  15.639  0.00  0.00    +0.240 C 
ENDBRANCH   7   8
BRANCH  10  11
ATOM     11  O   UNL     1      52.954  16.427  18.253  0.00  0.00    -0.484 OA
ATOM     12  H   UNL     1      52.820  15.473  18.340  0.00  0.00    +0.391 HD
ENDBRANCH  10  11
BRANCH  14  15
ATOM     15  O   UNL     1      49.438  17.843  21.121  0.00  0.00    -0.305 OA
ATOM     16  C   UNL     1      50.152  18.392  22.232  0.00  0.00    +0.237 C 
ENDBRANCH  14  15
ENDBRANCH   4   5
BRANCH   3   2
ATOM      1  C   UNL     1      47.086  17.542  16.726  0.00  0.00    +0.300 C 
ATOM      2  N   UNL     1      46.979  17.700  18.179  0.00  0.00    -0.579 N 
ATOM     28  C   UNL     1      46.784  16.621  18.963  0.00  0.00    +0.632 C 
ATOM     29  O   UNL     1      46.604  16.759  20.154  0.00  0.00    -0.531 OA
ENDBRANCH   3   2
TORSDOF 5
ENDMDL
MODEL 9
REMARK VINA RESULT:      -5.4      2.535      5.058
REMARK  Name = ZINC13372804
REMARK  8 active torsions:
REMARK  status: ('A' for Active; 'I' for Inactive)
REMARK    1  A    between atoms: C1_1  and  N1_2
REMARK    2  A    between atoms: N1_2  and  C3_5
REMARK    3  A    between atoms: C4_6  and  C14_18
REMARK    4  A    between atoms: C16_20  and  O6_27
REMARK    5  A    between atoms: C17_21  and  O5_26
REMARK    6  A    between atoms: C19_23  and  O4_24
REMARK    7  A    between atoms: O4_24  and  C20_25
REMARK    8  A    between atoms: O6_27  and  C21_28
REMARK                            x       y       z     vdW  Elec       q    Type
REMARK                         _______ _______ _______ _____ _____    ______ ____
ROOT
ATOM      3  C   UNL     1      45.895  18.533  19.754  0.00  0.00    +0.176 A 
ATOM      4  C   UNL     1      46.720  19.630  19.536  0.00  0.00    -0.020 A 
ATOM     17  C   UNL     1      47.913  19.490  18.811  0.00  0.00    +0.039 A 
ATOM     18  C   UNL     1      48.293  18.281  18.317  0.00  0.00    +0.042 A 
ATOM     19  C   UNL     1      47.482  17.149  18.518  0.00  0.00    -0.031 A 
ATOM     20  C   UNL     1      47.855  15.894  18.010  0.00  0.00    +0.048 A 
ATOM     21  C   UNL     1      47.053  14.810  18.220  0.00  0.00    +0.047 A 
ATOM     22  O   UNL     1      47.192  13.506  17.835  0.00  0.00    -0.306 OA
ATOM     23  C   UNL     1      46.292  12.759  18.673  0.00  0.00    +0.434 C 
ATOM     24  O   UNL     1      45.259  13.704  19.001  0.00  0.00    -0.306 OA
ATOM     25  C   UNL     1      45.854  14.933  18.941  0.00  0.00    +0.047 A 
ATOM     26  C   UNL     1      45.465  16.141  19.445  0.00  0.00    +0.046 A 
ATOM     27  C   UNL     1      46.270  17.274  19.245  0.00  0.00    -0.032 A 
ENDROOT
BRANCH   4   5
ATOM      5  C   UNL     1      46.333  20.958  20.068  0.00  0.00    -0.048 A 
ATOM      6  C   UNL     1      45.396  21.737  19.390  0.00  0.00    +0.008 A 
ATOM      7  C   UNL     1      45.038  22.975  19.889  0.00  0.00    +0.072 A 
ATOM     10  C   UNL     1      45.612  23.446  21.068  0.00  0.00    +0.120 A 
ATOM     13  C   UNL     1      46.543  22.675  21.744  0.00  0.00    -0.054 A 
ATOM     14  C   UNL     1      46.908  21.434  21.251  0.00  0.00    +0.127 A 
BRANCH   7   8
ATOM      8  O   UNL     1      44.124  23.737  19.227  0.00  0.00    -0.307 OA
ATOM      9  C   UNL     1      42.778  23.259  19.203  0.00  0.00    +0.240 C 
ENDBRANCH   7   8
BRANCH  10  11
ATOM     11  O   UNL     1      45.257  24.664  21.556  0.00  0.00    -0.484 OA
ATOM     12  H   UNL     1      44.914  24.641  22.459  0.00  0.00    +0.391 HD
ENDBRANCH  10  11
BRANCH  14  15
ATOM     15  O   UNL     1      47.820  20.677  21.915  0.00  0.00    -0.305 OA
ATOM     16  C   UNL     1      49.149  21.197  22.009  0.00  0.00    +0.237 C 
ENDBRANCH  14  15
ENDBRANCH   4   5
BRANCH   3   2
ATOM      1  C   UNL     1      43.467  19.027  19.770  0.00  0.00    +0.300 C 
ATOM      2  N   UNL     1      44.706  18.676  20.470  0.00  0.00    -0.579 N 
ATOM     28  C   UNL     1      44.697  18.492  21.805  0.00  0.00    +0.632 C 
ATOM     29  O   UNL     1      45.736  18.293  22.397  0.00  0.00    -0.531 OA
ENDBRANCH   3   2
TORSDOF 5
ENDMDL
