MODEL 1
REMARK VINA RESULT:      -5.7      0.000      0.000
REMARK  Name = ZINC18847044
REMARK  5 active torsions:
REMARK  status: ('A' for Active; 'I' for Inactive)
REMARK    1  A    between atoms: C1_1  and  O1_2
REMARK    2  A    between atoms: O1_2  and  C2_3
REMARK    3  A    between atoms: C4_5  and  O5_21
REMARK    4  A    between atoms: C9_11  and  C11_14
REMARK    5  A    between atoms: C14_17  and  O4_20
REMARK                            x       y       z     vdW  Elec       q    Type
REMARK                         _______ _______ _______ _____ _____    ______ ____
ROOT
ATOM      3  C   UNL     1      46.274  13.410  18.029  0.00  0.00    +0.209 A 
ATOM      4  C   UNL     1      46.696  14.240  16.996  0.00  0.00    -0.117 A 
ATOM      5  C   UNL     1      46.567  15.610  17.111  0.00  0.00    +0.240 A 
ATOM      8  C   UNL     1      46.006  16.154  18.273  0.00  0.00    -0.287 A 
ATOM      9  C   UNL     1      45.586  15.317  19.321  0.00  0.00    +0.197 A 
ATOM     10  O   UNL     1      45.064  15.844  20.446  0.00  0.00    -0.214 OA
ATOM     11  C   UNL     1      44.643  17.110  20.498  0.00  0.00    +0.327 A 
ATOM     12  C   UNL     1      44.980  18.035  19.563  0.00  0.00    -0.238 A 
ATOM     21  C   UNL     1      45.834  17.608  18.436  0.00  0.00    +0.431 A 
ATOM     22  O   UNL     1      46.364  18.409  17.687  0.00  0.00    -0.435 OA
ATOM     23  C   UNL     1      45.718  13.942  19.183  0.00  0.00    -0.034 A 
ENDROOT
BRANCH  12  13
ATOM     13  C   UNL     1      44.505  19.436  19.669  0.00  0.00    -0.035 A 
ATOM     14  C   UNL     1      43.271  19.797  19.130  0.00  0.00    +0.047 A 
ATOM     15  C   UNL     1      42.830  21.100  19.231  0.00  0.00    -0.011 A 
ATOM     16  C   UNL     1      43.615  22.051  19.870  0.00  0.00    +0.111 A 
ATOM     19  C   UNL     1      44.843  21.694  20.409  0.00  0.00    -0.010 A 
ATOM     20  C   UNL     1      45.286  20.392  20.315  0.00  0.00    +0.042 A 
BRANCH  16  17
ATOM     17  O   UNL     1      43.178  23.334  19.968  0.00  0.00    -0.499 OA
ATOM     18  H   UNL     1      43.405  23.765  20.805  0.00  0.00    +0.392 HD
ENDBRANCH  16  17
ENDBRANCH  12  13
BRANCH   3   2
ATOM      1  C   UNL     1      46.183  11.509  16.606  0.00  0.00    +0.256 C 
ATOM      2  O   UNL     1      46.401  12.064  17.905  0.00  0.00    -0.303 OA
ENDBRANCH   3   2
BRANCH   5   6
ATOM      6  O   UNL     1      46.981  16.424  16.106  0.00  0.00    -0.474 OA
ATOM      7  H   UNL     1      47.940  16.436  15.978  0.00  0.00    +0.402 HD
ENDBRANCH   5   6
TORSDOF 4
ENDMDL
MODEL 2
REMARK VINA RESULT:      -5.7      3.969      6.787
REMARK  Name = ZINC18847044
REMARK  5 active torsions:
REMARK  status: ('A' for Active; 'I' for Inactive)
REMARK    1  A    between atoms: C1_1  and  O1_2
REMARK    2  A    between atoms: O1_2  and  C2_3
REMARK    3  A    between atoms: C4_5  and  O5_21
REMARK    4  A    between atoms: C9_11  and  C11_14
REMARK    5  A    between atoms: C14_17  and  O4_20
REMARK                            x       y       z     vdW  Elec       q    Type
REMARK                         _______ _______ _______ _____ _____    ______ ____
ROOT
ATOM      3  C   UNL     1      43.121  20.377  19.475  0.00  0.00    +0.209 A 
ATOM      4  C   UNL     1      43.623  19.490  18.529  0.00  0.00    -0.117 A 
ATOM      5  C   UNL     1      44.986  19.291  18.419  0.00  0.00    +0.240 A 
ATOM      8  C   UNL     1      45.854  19.994  19.265  0.00  0.00    -0.287 A 
ATOM      9  C   UNL     1      45.347  20.885  20.226  0.00  0.00    +0.197 A 
ATOM     10  O   UNL     1      46.184  21.545  21.051  0.00  0.00    -0.214 OA
ATOM     11  C   UNL     1      47.494  21.627  20.803  0.00  0.00    +0.327 A 
ATOM     12  C   UNL     1      48.124  20.821  19.910  0.00  0.00    -0.238 A 
ATOM     21  C   UNL     1      47.315  19.828  19.176  0.00  0.00    +0.431 A 
ATOM     22  O   UNL     1      47.825  18.926  18.535  0.00  0.00    -0.435 OA
ATOM     23  C   UNL     1      43.974  21.075  20.315  0.00  0.00    -0.034 A 
ENDROOT
BRANCH  12  13
ATOM     13  C   UNL     1      49.584  20.934  19.679  0.00  0.00    -0.035 A 
ATOM     14  C   UNL     1      50.076  21.086  18.384  0.00  0.00    +0.047 A 
ATOM     15  C   UNL     1      51.435  21.192  18.172  0.00  0.00    -0.011 A 
ATOM     16  C   UNL     1      52.312  21.148  19.247  0.00  0.00    +0.111 A 
ATOM     19  C   UNL     1      51.825  20.998  20.538  0.00  0.00    -0.010 A 
ATOM     20  C   UNL     1      50.467  20.897  20.757  0.00  0.00    +0.042 A 
BRANCH  16  17
ATOM     17  O   UNL     1      53.650  21.253  19.035  0.00  0.00    -0.499 OA
ATOM     18  H   UNL     1      53.958  20.806  18.234  0.00  0.00    +0.392 HD
ENDBRANCH  16  17
ENDBRANCH  12  13
BRANCH   3   2
ATOM      1  C   UNL     1      41.208  21.582  18.745  0.00  0.00    +0.256 C 
ATOM      2  O   UNL     1      41.780  20.568  19.573  0.00  0.00    -0.303 OA
ENDBRANCH   3   2
BRANCH   5   6
ATOM      6  O   UNL     1      45.480  18.424  17.500  0.00  0.00    -0.474 OA
ATOM      7  H   UNL     1      45.882  18.851  16.731  0.00  0.00    +0.402 HD
ENDBRANCH   5   6
TORSDOF 4
ENDMDL
MODEL 3
REMARK VINA RESULT:      -5.5      2.589      7.359
REMARK  Name = ZINC18847044
REMARK  5 active torsions:
REMARK  status: ('A' for Active; 'I' for Inactive)
REMARK    1  A    between atoms: C1_1  and  O1_2
REMARK    2  A    between atoms: O1_2  and  C2_3
REMARK    3  A    between atoms: C4_5  and  O5_21
REMARK    4  A    between atoms: C9_11  and  C11_14
REMARK    5  A    between atoms: C14_17  and  O4_20
REMARK                            x       y       z     vdW  Elec       q    Type
REMARK                         _______ _______ _______ _____ _____    ______ ____
ROOT
ATOM      3  C   UNL     1      41.502  20.679  19.110  0.00  0.00    +0.209 A 
ATOM      4  C   UNL     1      40.877  19.945  20.112  0.00  0.00    -0.117 A 
ATOM      5  C   UNL     1      41.560  18.934  20.760  0.00  0.00    +0.240 A 
ATOM      8  C   UNL     1      42.884  18.654  20.395  0.00  0.00    -0.287 A 
ATOM      9  C   UNL     1      43.519  19.402  19.388  0.00  0.00    +0.197 A 
ATOM     10  O   UNL     1      44.799  19.143  19.054  0.00  0.00    -0.214 OA
ATOM     11  C   UNL     1      45.405  18.011  19.419  0.00  0.00    +0.327 A 
ATOM     12  C   UNL     1      44.914  17.195  20.388  0.00  0.00    -0.238 A 
ATOM     21  C   UNL     1      43.649  17.577  21.046  0.00  0.00    +0.431 A 
ATOM     22  O   UNL     1      43.261  17.033  22.065  0.00  0.00    -0.435 OA
ATOM     23  C   UNL     1      42.812  20.409  18.745  0.00  0.00    -0.034 A 
ENDROOT
BRANCH  12  13
ATOM     13  C   UNL     1      45.630  15.955  20.775  0.00  0.00    -0.035 A 
ATOM     14  C   UNL     1      46.639  16.003  21.735  0.00  0.00    +0.047 A 
ATOM     15  C   UNL     1      47.303  14.848  22.094  0.00  0.00    -0.011 A 
ATOM     16  C   UNL     1      46.966  13.639  21.500  0.00  0.00    +0.111 A 
ATOM     19  C   UNL     1      45.961  13.589  20.543  0.00  0.00    -0.010 A 
ATOM     20  C   UNL     1      45.291  14.740  20.184  0.00  0.00    +0.042 A 
BRANCH  16  17
ATOM     17  O   UNL     1      47.621  12.503  21.855  0.00  0.00    -0.499 OA
ATOM     18  H   UNL     1      47.845  12.456  22.796  0.00  0.00    +0.392 HD
ENDBRANCH  16  17
ENDBRANCH  12  13
BRANCH   3   2
ATOM      1  C   UNL     1      39.397  21.551  18.436  0.00  0.00    +0.256 C 
ATOM      2  O   UNL     1      40.821  21.669  18.478  0.00  0.00    -0.303 OA
ENDBRANCH   3   2
BRANCH   5   6
ATOM      6  O   UNL     1      40.955  18.216  21.740  0.00  0.00    -0.474 OA
ATOM      7  H   UNL     1      41.008  18.624  22.616  0.00  0.00    +0.402 HD
ENDBRANCH   5   6
TORSDOF 4
ENDMDL
MODEL 4
REMARK VINA RESULT:      -5.5      3.915      6.906
REMARK  Name = ZINC18847044
REMARK  5 active torsions:
REMARK  status: ('A' for Active; 'I' for Inactive)
REMARK    1  A    between atoms: C1_1  and  O1_2
REMARK    2  A    between atoms: O1_2  and  C2_3
REMARK    3  A    between atoms: C4_5  and  O5_21
REMARK    4  A    between atoms: C9_11  and  C11_14
REMARK    5  A    between atoms: C14_17  and  O4_20
REMARK                            x       y       z     vdW  Elec       q    Type
REMARK                         _______ _______ _______ _____ _____    ______ ____
ROOT
ATOM      3  C   UNL     1      41.543  20.693  18.541  0.00  0.00    +0.209 A 
ATOM      4  C   UNL     1      41.810  21.880  19.213  0.00  0.00    -0.117 A 
ATOM      5  C   UNL     1      43.104  22.192  19.581  0.00  0.00    +0.240 A 
ATOM      8  C   UNL     1      44.141  21.302  19.274  0.00  0.00    -0.287 A 
ATOM      9  C   UNL     1      43.872  20.105  18.587  0.00  0.00    +0.197 A 
ATOM     10  O   UNL     1      44.875  19.259  18.277  0.00  0.00    -0.214 OA
ATOM     11  C   UNL     1      46.076  19.351  18.853  0.00  0.00    +0.327 A 
ATOM     12  C   UNL     1      46.478  20.453  19.538  0.00  0.00    -0.238 A 
ATOM     21  C   UNL     1      45.535  21.582  19.658  0.00  0.00    +0.431 A 
ATOM     22  O   UNL     1      45.888  22.680  20.052  0.00  0.00    -0.435 OA
ATOM     23  C   UNL     1      42.563  19.807  18.233  0.00  0.00    -0.034 A 
ENDROOT
BRANCH  12  13
ATOM     13  C   UNL     1      47.829  20.521  20.147  0.00  0.00    -0.035 A 
ATOM     14  C   UNL     1      47.976  20.427  21.530  0.00  0.00    +0.047 A 
ATOM     15  C   UNL     1      49.233  20.489  22.095  0.00  0.00    -0.011 A 
ATOM     16  C   UNL     1      50.351  20.644  21.286  0.00  0.00    +0.111 A 
ATOM     19  C   UNL     1      50.208  20.737  19.908  0.00  0.00    -0.010 A 
ATOM     20  C   UNL     1      48.953  20.670  19.339  0.00  0.00    +0.042 A 
BRANCH  16  17
ATOM     17  O   UNL     1      51.588  20.705  21.845  0.00  0.00    -0.499 OA
ATOM     18  H   UNL     1      52.097  21.488  21.592  0.00  0.00    +0.392 HD
ENDBRANCH  16  17
ENDBRANCH  12  13
BRANCH   3   2
ATOM      1  C   UNL     1      39.267  21.373  18.476  0.00  0.00    +0.256 C 
ATOM      2  O   UNL     1      40.266  20.394  18.187  0.00  0.00    -0.303 OA
ENDBRANCH   3   2
BRANCH   5   6
ATOM      6  O   UNL     1      43.370  23.351  20.235  0.00  0.00    -0.474 OA
ATOM      7  H   UNL     1      44.023  23.912  19.793  0.00  0.00    +0.402 HD
ENDBRANCH   5   6
TORSDOF 4
ENDMDL
MODEL 5
REMARK VINA RESULT:      -5.4      3.839      6.724
REMARK  Name = ZINC18847044
REMARK  5 active torsions:
REMARK  status: ('A' for Active; 'I' for Inactive)
REMARK    1  A    between atoms: C1_1  and  O1_2
REMARK    2  A    between atoms: O1_2  and  C2_3
REMARK    3  A    between atoms: C4_5  and  O5_21
REMARK    4  A    between atoms: C9_11  and  C11_14
REMARK    5  A    between atoms: C14_17  and  O4_20
REMARK                            x       y       z     vdW  Elec       q    Type
REMARK                         _______ _______ _______ _____ _____    ______ ____
ROOT
ATOM      3  C   UNL     1      41.824  20.115  19.744  0.00  0.00    +0.209 A 
ATOM      4  C   UNL     1      42.232  18.972  20.422  0.00  0.00    -0.117 A 
ATOM      5  C   UNL     1      43.577  18.696  20.568  0.00  0.00    +0.240 A 
ATOM      8  C   UNL     1      44.523  19.574  20.024  0.00  0.00    -0.287 A 
ATOM      9  C   UNL     1      44.111  20.734  19.345  0.00  0.00    +0.197 A 
ATOM     10  O   UNL     1      45.024  21.587  18.839  0.00  0.00    -0.214 OA
ATOM     11  C   UNL     1      46.303  21.236  18.684  0.00  0.00    +0.327 A 
ATOM     12  C   UNL     1      46.844  20.147  19.291  0.00  0.00    -0.238 A 
ATOM     21  C   UNL     1      45.969  19.315  20.140  0.00  0.00    +0.431 A 
ATOM     22  O   UNL     1      46.415  18.466  20.891  0.00  0.00    -0.435 OA
ATOM     23  C   UNL     1      42.754  20.989  19.203  0.00  0.00    -0.034 A 
ENDROOT
BRANCH  12  13
ATOM     13  C   UNL     1      48.275  19.804  19.105  0.00  0.00    -0.035 A 
ATOM     14  C   UNL     1      48.631  18.600  18.500  0.00  0.00    +0.047 A 
ATOM     15  C   UNL     1      49.963  18.283  18.328  0.00  0.00    -0.011 A 
ATOM     16  C   UNL     1      50.948  19.163  18.757  0.00  0.00    +0.111 A 
ATOM     19  C   UNL     1      50.596  20.363  19.360  0.00  0.00    -0.010 A 
ATOM     20  C   UNL     1      49.266  20.687  19.530  0.00  0.00    +0.042 A 
BRANCH  16  17
ATOM     17  O   UNL     1      52.258  18.849  18.586  0.00  0.00    -0.499 OA
ATOM     18  H   UNL     1      52.845  19.225  19.258  0.00  0.00    +0.392 HD
ENDBRANCH  16  17
ENDBRANCH  12  13
BRANCH   3   2
ATOM      1  C   UNL     1      40.135  21.410  18.686  0.00  0.00    +0.256 C 
ATOM      2  O   UNL     1      40.499  20.376  19.603  0.00  0.00    -0.303 OA
ENDBRANCH   3   2
BRANCH   5   6
ATOM      6  O   UNL     1      43.981  17.583  21.232  0.00  0.00    -0.474 OA
ATOM      7  H   UNL     1      44.690  17.741  21.871  0.00  0.00    +0.402 HD
ENDBRANCH   5   6
TORSDOF 4
ENDMDL
MODEL 6
REMARK VINA RESULT:      -5.4      3.235      4.633
REMARK  Name = ZINC18847044
REMARK  5 active torsions:
REMARK  status: ('A' for Active; 'I' for Inactive)
REMARK    1  A    between atoms: C1_1  and  O1_2
REMARK    2  A    between atoms: O1_2  and  C2_3
REMARK    3  A    between atoms: C4_5  and  O5_21
REMARK    4  A    between atoms: C9_11  and  C11_14
REMARK    5  A    between atoms: C14_17  and  O4_20
REMARK                            x       y       z     vdW  Elec       q    Type
REMARK                         _______ _______ _______ _____ _____    ______ ____
ROOT
ATOM      3  C   UNL     1      50.202  18.126  17.269  0.00  0.00    +0.209 A 
ATOM      4  C   UNL     1      50.217  19.225  18.121  0.00  0.00    -0.117 A 
ATOM      5  C   UNL     1      49.150  19.462  18.966  0.00  0.00    +0.240 A 
ATOM      8  C   UNL     1      48.054  18.590  18.953  0.00  0.00    -0.287 A 
ATOM      9  C   UNL     1      48.041  17.474  18.097  0.00  0.00    +0.197 A 
ATOM     10  O   UNL     1      46.994  16.626  18.100  0.00  0.00    -0.214 OA
ATOM     11  C   UNL     1      45.826  16.955  18.659  0.00  0.00    +0.327 A 
ATOM     12  C   UNL     1      45.691  17.999  19.516  0.00  0.00    -0.238 A 
ATOM     21  C   UNL     1      46.887  18.809  19.823  0.00  0.00    +0.431 A 
ATOM     22  O   UNL     1      46.906  19.610  20.741  0.00  0.00    -0.435 OA
ATOM     23  C   UNL     1      49.121  17.258  17.251  0.00  0.00    -0.034 A 
ENDROOT
BRANCH  12  13
ATOM     13  C   UNL     1      44.378  18.318  20.128  0.00  0.00    -0.035 A 
ATOM     14  C   UNL     1      43.962  17.647  21.277  0.00  0.00    +0.047 A 
ATOM     15  C   UNL     1      42.740  17.945  21.845  0.00  0.00    -0.011 A 
ATOM     16  C   UNL     1      41.926  18.914  21.272  0.00  0.00    +0.111 A 
ATOM     19  C   UNL     1      42.338  19.584  20.129  0.00  0.00    -0.010 A 
ATOM     20  C   UNL     1      43.561  19.293  19.560  0.00  0.00    +0.042 A 
BRANCH  16  17
ATOM     17  O   UNL     1      40.724  19.206  21.834  0.00  0.00    -0.499 OA
ATOM     18  H   UNL     1      40.244  19.919  21.389  0.00  0.00    +0.392 HD
ENDBRANCH  16  17
ENDBRANCH  12  13
BRANCH   3   2
ATOM      1  C   UNL     1      51.843  19.048  15.819  0.00  0.00    +0.256 C 
ATOM      2  O   UNL     1      51.254  17.904  16.440  0.00  0.00    -0.303 OA
ENDBRANCH   3   2
BRANCH   5   6
ATOM      6  O   UNL     1      49.162  20.532  19.802  0.00  0.00    -0.474 OA
ATOM      7  H   UNL     1      49.304  20.304  20.731  0.00  0.00    +0.402 HD
ENDBRANCH   5   6
TORSDOF 4
ENDMDL
MODEL 7
REMARK VINA RESULT:      -5.1      1.439      7.304
REMARK  Name = ZINC18847044
REMARK  5 active torsions:
REMARK  status: ('A' for Active; 'I' for Inactive)
REMARK    1  A    between atoms: C1_1  and  O1_2
REMARK    2  A    between atoms: O1_2  and  C2_3
REMARK    3  A    between atoms: C4_5  and  O5_21
REMARK    4  A    between atoms: C9_11  and  C11_14
REMARK    5  A    between atoms: C14_17  and  O4_20
REMARK                            x       y       z     vdW  Elec       q    Type
REMARK                         _______ _______ _______ _____ _____    ______ ____
ROOT
ATOM      3  C   UNL     1      43.435  20.230  19.531  0.00  0.00    +0.209 A 
ATOM      4  C   UNL     1      43.074  19.385  20.575  0.00  0.00    -0.117 A 
ATOM      5  C   UNL     1      43.673  18.146  20.703  0.00  0.00    +0.240 A 
ATOM      8  C   UNL     1      44.642  17.750  19.772  0.00  0.00    -0.287 A 
ATOM      9  C   UNL     1      45.013  18.608  18.721  0.00  0.00    +0.197 A 
ATOM     10  O   UNL     1      45.959  18.231  17.838  0.00  0.00    -0.214 OA
ATOM     11  C   UNL     1      46.351  16.960  17.728  0.00  0.00    +0.327 A 
ATOM     12  C   UNL     1      46.077  16.023  18.673  0.00  0.00    -0.238 A 
ATOM     21  C   UNL     1      45.298  16.434  19.857  0.00  0.00    +0.431 A 
ATOM     22  O   UNL     1      45.203  15.728  20.846  0.00  0.00    -0.435 OA
ATOM     23  C   UNL     1      44.393  19.845  18.606  0.00  0.00    -0.034 A 
ENDROOT
BRANCH  12  13
ATOM     13  C   UNL     1      46.548  14.625  18.519  0.00  0.00    -0.035 A 
ATOM     14  C   UNL     1      45.686  13.649  18.021  0.00  0.00    +0.047 A 
ATOM     15  C   UNL     1      46.126  12.349  17.878  0.00  0.00    -0.011 A 
ATOM     16  C   UNL     1      47.427  12.014  18.229  0.00  0.00    +0.111 A 
ATOM     19  C   UNL     1      48.288  12.984  18.725  0.00  0.00    -0.010 A 
ATOM     20  C   UNL     1      47.854  14.286  18.865  0.00  0.00    +0.042 A 
BRANCH  16  17
ATOM     17  O   UNL     1      47.858  10.733  18.087  0.00  0.00    -0.499 OA
ATOM     18  H   UNL     1      47.484  10.275  17.321  0.00  0.00    +0.392 HD
ENDBRANCH  16  17
ENDBRANCH  12  13
BRANCH   3   2
ATOM      1  C   UNL     1      41.521  21.466  18.857  0.00  0.00    +0.256 C 
ATOM      2  O   UNL     1      42.838  21.443  19.412  0.00  0.00    -0.303 OA
ENDBRANCH   3   2
BRANCH   5   6
ATOM      6  O   UNL     1      43.326  17.320  21.722  0.00  0.00    -0.474 OA
ATOM      7  H   UNL     1      43.382  17.728  22.597  0.00  0.00    +0.402 HD
ENDBRANCH   5   6
TORSDOF 4
ENDMDL
MODEL 8
REMARK VINA RESULT:      -5.0      3.710      7.199
REMARK  Name = ZINC18847044
REMARK  5 active torsions:
REMARK  status: ('A' for Active; 'I' for Inactive)
REMARK    1  A    between atoms: C1_1  and  O1_2
REMARK    2  A    between atoms: O1_2  and  C2_3
REMARK    3  A    between atoms: C4_5  and  O5_21
REMARK    4  A    between atoms: C9_11  and  C11_14
REMARK    5  A    between atoms: C14_17  and  O4_20
REMARK                            x       y       z     vdW  Elec       q    Type
REMARK                         _______ _______ _______ _____ _____    ______ ____
ROOT
ATOM      3  C   UNL     1      43.706  20.647  19.405  0.00  0.00    +0.209 A 
ATOM      4  C   UNL     1      44.549  21.492  20.118  0.00  0.00    -0.117 A 
ATOM      5  C   UNL     1      45.919  21.332  20.039  0.00  0.00    +0.240 A 
ATOM      8  C   UNL     1      46.448  20.311  19.239  0.00  0.00    -0.287 A 
ATOM      9  C   UNL     1      45.596  19.461  18.512  0.00  0.00    +0.197 A 
ATOM     10  O   UNL     1      46.109  18.492  17.728  0.00  0.00    -0.214 OA
ATOM     11  C   UNL     1      47.380  18.098  17.839  0.00  0.00    +0.327 A 
ATOM     12  C   UNL     1      48.318  18.824  18.500  0.00  0.00    -0.238 A 
ATOM     21  C   UNL     1      47.901  20.091  19.134  0.00  0.00    +0.431 A 
ATOM     22  O   UNL     1      48.709  20.905  19.545  0.00  0.00    -0.435 OA
ATOM     23  C   UNL     1      44.222  19.635  18.611  0.00  0.00    -0.034 A 
ENDROOT
BRANCH  12  13
ATOM     13  C   UNL     1      49.724  18.358  18.584  0.00  0.00    -0.035 A 
ATOM     14  C   UNL     1      50.608  18.618  17.538  0.00  0.00    +0.047 A 
ATOM     15  C   UNL     1      51.915  18.184  17.618  0.00  0.00    -0.011 A 
ATOM     16  C   UNL     1      52.350  17.490  18.740  0.00  0.00    +0.111 A 
ATOM     19  C   UNL     1      51.471  17.230  19.783  0.00  0.00    -0.010 A 
ATOM     20  C   UNL     1      50.165  17.667  19.710  0.00  0.00    +0.042 A 
BRANCH  16  17
ATOM     17  O   UNL     1      53.638  17.064  18.816  0.00  0.00    -0.499 OA
ATOM     18  H   UNL     1      54.222  17.661  19.304  0.00  0.00    +0.392 HD
ENDBRANCH  16  17
ENDBRANCH  12  13
BRANCH   3   2
ATOM      1  C   UNL     1      41.580  20.361  18.382  0.00  0.00    +0.256 C 
ATOM      2  O   UNL     1      42.361  20.810  19.492  0.00  0.00    -0.303 OA
ENDBRANCH   3   2
BRANCH   5   6
ATOM      6  O   UNL     1      46.746  22.157  20.730  0.00  0.00    -0.474 OA
ATOM      7  H   UNL     1      46.945  21.853  21.627  0.00  0.00    +0.402 HD
ENDBRANCH   5   6
TORSDOF 4
ENDMDL
MODEL 9
REMARK VINA RESULT:      -5.0      3.733      6.312
REMARK  Name = ZINC18847044
REMARK  5 active torsions:
REMARK  status: ('A' for Active; 'I' for Inactive)
REMARK    1  A    between atoms: C1_1  and  O1_2
REMARK    2  A    between atoms: O1_2  and  C2_3
REMARK    3  A    between atoms: C4_5  and  O5_21
REMARK    4  A    between atoms: C9_11  and  C11_14
REMARK    5  A    between atoms: C14_17  and  O4_20
REMARK                            x       y       z     vdW  Elec       q    Type
REMARK                         _______ _______ _______ _____ _____    ______ ____
ROOT
ATOM      3  C   UNL     1      42.937  18.917  20.813  0.00  0.00    +0.209 A 
ATOM      4  C   UNL     1      43.004  20.176  20.226  0.00  0.00    -0.117 A 
ATOM      5  C   UNL     1      44.184  20.612  19.655  0.00  0.00    +0.240 A 
ATOM      8  C   UNL     1      45.309  19.777  19.677  0.00  0.00    -0.287 A 
ATOM      9  C   UNL     1      45.239  18.502  20.264  0.00  0.00    +0.197 A 
ATOM     10  O   UNL     1      46.318  17.694  20.267  0.00  0.00    -0.214 OA
ATOM     11  C   UNL     1      47.543  18.158  20.008  0.00  0.00    +0.327 A 
ATOM     12  C   UNL     1      47.764  19.367  19.431  0.00  0.00    -0.238 A 
ATOM     21  C   UNL     1      46.594  20.203  19.096  0.00  0.00    +0.431 A 
ATOM     22  O   UNL     1      46.685  21.186  18.381  0.00  0.00    -0.435 OA
ATOM     23  C   UNL     1      44.046  18.086  20.838  0.00  0.00    -0.034 A 
ENDROOT
BRANCH  12  13
ATOM     13  C   UNL     1      49.141  19.836  19.145  0.00  0.00    -0.035 A 
ATOM     14  C   UNL     1      49.806  19.394  18.002  0.00  0.00    +0.047 A 
ATOM     15  C   UNL     1      51.087  19.832  17.738  0.00  0.00    -0.011 A 
ATOM     16  C   UNL     1      51.714  20.712  18.610  0.00  0.00    +0.111 A 
ATOM     19  C   UNL     1      51.055  21.154  19.748  0.00  0.00    -0.010 A 
ATOM     20  C   UNL     1      49.772  20.724  20.014  0.00  0.00    +0.042 A 
BRANCH  16  17
ATOM     17  O   UNL     1      52.976  21.142  18.346  0.00  0.00    -0.499 OA
ATOM     18  H   UNL     1      53.018  22.024  17.953  0.00  0.00    +0.392 HD
ENDBRANCH  16  17
ENDBRANCH  12  13
BRANCH   3   2
ATOM      1  C   UNL     1      40.593  19.235  21.045  0.00  0.00    +0.256 C 
ATOM      2  O   UNL     1      41.773  18.499  21.375  0.00  0.00    -0.303 OA
ENDBRANCH   3   2
BRANCH   5   6
ATOM      6  O   UNL     1      44.254  21.838  19.078  0.00  0.00    -0.474 OA
ATOM      7  H   UNL     1      44.327  22.567  19.710  0.00  0.00    +0.402 HD
ENDBRANCH   5   6
TORSDOF 4
ENDMDL
