MODEL 1
REMARK VINA RESULT:      -5.7      0.000      0.000
REMARK  Name = ZINC95486022
REMARK  11 active torsions:
REMARK  status: ('A' for Active; 'I' for Inactive)
REMARK    1  A    between atoms: C1_1  and  C2_2
REMARK    2  A    between atoms: C8_8  and  O4_31
REMARK    3  A    between atoms: C10_10  and  O3_30
REMARK    4  A    between atoms: C11_11  and  C12_12
REMARK    5  A    between atoms: C15_16  and  O2_28
REMARK    6  A    between atoms: C17_18  and  O1_26
REMARK    7  A    between atoms: C19_20  and  C22_25
REMARK    8  A    between atoms: C20_22  and  C21_24
REMARK    9  A    between atoms: O1_26  and  C23_27
REMARK   10  A    between atoms: O2_28  and  C24_29
REMARK   11  A    between atoms: O4_31  and  C25_32
REMARK                            x       y       z     vdW  Elec       q    Type
REMARK                         _______ _______ _______ _____ _____    ______ ____
ROOT
ATOM     16  C   UNL     1      48.860  17.840  18.579  0.00  0.00    +0.078 C 
ATOM     17  C   UNL     1      50.052  18.756  18.685  0.00  0.00    +0.014 A 
ATOM     18  C   UNL     1      50.635  19.295  17.564  0.00  0.00    -0.045 A 
ATOM     19  C   UNL     1      51.728  20.147  17.691  0.00  0.00    +0.173 A 
ATOM     22  C   UNL     1      52.233  20.460  18.944  0.00  0.00    -0.164 A 
ATOM     23  C   UNL     1      51.654  19.921  20.081  0.00  0.00    +0.185 A 
ATOM     26  C   UNL     1      50.561  19.055  19.954  0.00  0.00    -0.113 A 
ATOM     27  C   UNL     1      49.939  18.431  21.130  0.00  0.00    +0.255 C 
ATOM     28  C   UNL     1      50.196  18.992  22.505  0.00  0.00    +0.130 C 
ATOM     29  N   UNL     1      49.173  17.401  20.987  0.00  0.00    -0.539 NA
ATOM     30  C   UNL     1      48.924  16.789  19.687  0.00  0.00    +0.164 C 
ATOM     31  C   UNL     1      47.596  16.031  19.736  0.00  0.00    +0.050 C 
ENDROOT
BRANCH  16  15
ATOM      1  C   UNL     1      46.503  17.052  17.128  0.00  0.00    +0.097 C 
ATOM      2  C   UNL     1      46.454  18.264  18.022  0.00  0.00    -0.030 A 
ATOM      3  C   UNL     1      45.293  18.966  18.136  0.00  0.00    -0.016 A 
ATOM      4  C   UNL     1      45.236  20.098  18.968  0.00  0.00    +0.010 A 
ATOM      5  C   UNL     1      44.050  20.842  19.104  0.00  0.00    -0.022 A 
ATOM      6  C   UNL     1      44.023  21.933  19.916  0.00  0.00    +0.057 A 
ATOM      7  C   UNL     1      45.155  22.332  20.622  0.00  0.00    -0.100 A 
ATOM      8  C   UNL     1      46.335  21.631  20.515  0.00  0.00    +0.150 A 
ATOM     11  C   UNL     1      46.393  20.496  19.682  0.00  0.00    -0.122 A 
ATOM     12  C   UNL     1      47.579  19.750  19.546  0.00  0.00    +0.168 A 
ATOM     15  C   UNL     1      47.594  18.644  18.724  0.00  0.00    -0.115 A 
BRANCH   8   9
ATOM      9  O   UNL     1      47.433  22.029  21.207  0.00  0.00    -0.315 OA
ATOM     10  C   UNL     1      47.210  22.682  22.458  0.00  0.00    +0.249 C 
ENDBRANCH   8   9
BRANCH  12  13
ATOM     13  O   UNL     1      48.700  20.115  20.222  0.00  0.00    -0.443 OA
ATOM     14  H   UNL     1      48.544  20.771  20.915  0.00  0.00    +0.385 HD
ENDBRANCH  12  13
ENDBRANCH  16  15
BRANCH  19  20
ATOM     20  O   UNL     1      52.304  20.675  16.580  0.00  0.00    -0.313 OA
ATOM     21  C   UNL     1      52.236  19.897  15.382  0.00  0.00    +0.240 C 
ENDBRANCH  19  20
BRANCH  23  24
ATOM     24  O   UNL     1      52.142  20.229  21.309  0.00  0.00    -0.301 OA
ATOM     25  C   UNL     1      52.602  21.566  21.508  0.00  0.00    +0.234 C 
ENDBRANCH  23  24
TORSDOF 5
ENDMDL
MODEL 2
REMARK VINA RESULT:      -5.6      2.295      6.156
REMARK  Name = ZINC95486022
REMARK  11 active torsions:
REMARK  status: ('A' for Active; 'I' for Inactive)
REMARK    1  A    between atoms: C1_1  and  C2_2
REMARK    2  A    between atoms: C8_8  and  O4_31
REMARK    3  A    between atoms: C10_10  and  O3_30
REMARK    4  A    between atoms: C11_11  and  C12_12
REMARK    5  A    between atoms: C15_16  and  O2_28
REMARK    6  A    between atoms: C17_18  and  O1_26
REMARK    7  A    between atoms: C19_20  and  C22_25
REMARK    8  A    between atoms: C20_22  and  C21_24
REMARK    9  A    between atoms: O1_26  and  C23_27
REMARK   10  A    between atoms: O2_28  and  C24_29
REMARK   11  A    between atoms: O4_31  and  C25_32
REMARK                            x       y       z     vdW  Elec       q    Type
REMARK                         _______ _______ _______ _____ _____    ______ ____
ROOT
ATOM     16  C   UNL     1      49.991  20.774  18.824  0.00  0.00    +0.078 C 
ATOM     17  C   UNL     1      48.630  20.494  19.407  0.00  0.00    +0.014 A 
ATOM     18  C   UNL     1      47.483  20.843  18.735  0.00  0.00    -0.045 A 
ATOM     19  C   UNL     1      46.239  20.562  19.291  0.00  0.00    +0.173 A 
ATOM     22  C   UNL     1      46.147  19.928  20.521  0.00  0.00    -0.164 A 
ATOM     23  C   UNL     1      47.296  19.573  21.208  0.00  0.00    +0.185 A 
ATOM     26  C   UNL     1      48.548  19.865  20.654  0.00  0.00    -0.113 A 
ATOM     27  C   UNL     1      49.792  19.541  21.366  0.00  0.00    +0.255 C 
ATOM     28  C   UNL     1      49.774  18.554  22.505  0.00  0.00    +0.130 C 
ATOM     29  N   UNL     1      50.902  20.100  21.016  0.00  0.00    -0.539 NA
ATOM     30  C   UNL     1      50.972  21.095  19.951  0.00  0.00    +0.164 C 
ATOM     31  C   UNL     1      52.393  21.123  19.384  0.00  0.00    +0.050 C 
ENDROOT
BRANCH  16  15
ATOM      1  C   UNL     1      51.665  21.118  16.509  0.00  0.00    +0.097 C 
ATOM      2  C   UNL     1      51.283  19.728  16.949  0.00  0.00    -0.030 A 
ATOM      3  C   UNL     1      51.739  18.654  16.248  0.00  0.00    -0.016 A 
ATOM      4  C   UNL     1      51.388  17.353  16.650  0.00  0.00    +0.010 A 
ATOM      5  C   UNL     1      51.846  16.226  15.944  0.00  0.00    -0.022 A 
ATOM      6  C   UNL     1      51.492  14.978  16.355  0.00  0.00    +0.057 A 
ATOM      7  C   UNL     1      50.678  14.793  17.470  0.00  0.00    -0.100 A 
ATOM      8  C   UNL     1      50.209  15.871  18.187  0.00  0.00    +0.150 A 
ATOM     11  C   UNL     1      50.561  17.175  17.785  0.00  0.00    -0.122 A 
ATOM     12  C   UNL     1      50.104  18.304  18.491  0.00  0.00    +0.168 A 
ATOM     15  C   UNL     1      50.473  19.563  18.069  0.00  0.00    -0.115 A 
BRANCH   8   9
ATOM      9  O   UNL     1      49.416  15.679  19.272  0.00  0.00    -0.315 OA
ATOM     10  C   UNL     1      48.554  14.539  19.252  0.00  0.00    +0.249 C 
ENDBRANCH   8   9
BRANCH  12  13
ATOM     13  O   UNL     1      49.308  18.155  19.582  0.00  0.00    -0.443 OA
ATOM     14  H   UNL     1      49.077  18.988  20.017  0.00  0.00    +0.385 HD
ENDBRANCH  12  13
ENDBRANCH  16  15
BRANCH  19  20
ATOM     20  O   UNL     1      45.108  20.911  18.625  0.00  0.00    -0.313 OA
ATOM     21  C   UNL     1      43.972  20.058  18.784  0.00  0.00    +0.240 C 
ENDBRANCH  19  20
BRANCH  23  24
ATOM     24  O   UNL     1      47.208  18.948  22.410  0.00  0.00    -0.301 OA
ATOM     25  C   UNL     1      46.301  17.849  22.505  0.00  0.00    +0.234 C 
ENDBRANCH  23  24
TORSDOF 5
ENDMDL
MODEL 3
REMARK VINA RESULT:      -5.4      2.563      6.501
REMARK  Name = ZINC95486022
REMARK  11 active torsions:
REMARK  status: ('A' for Active; 'I' for Inactive)
REMARK    1  A    between atoms: C1_1  and  C2_2
REMARK    2  A    between atoms: C8_8  and  O4_31
REMARK    3  A    between atoms: C10_10  and  O3_30
REMARK    4  A    between atoms: C11_11  and  C12_12
REMARK    5  A    between atoms: C15_16  and  O2_28
REMARK    6  A    between atoms: C17_18  and  O1_26
REMARK    7  A    between atoms: C19_20  and  C22_25
REMARK    8  A    between atoms: C20_22  and  C21_24
REMARK    9  A    between atoms: O1_26  and  C23_27
REMARK   10  A    between atoms: O2_28  and  C24_29
REMARK   11  A    between atoms: O4_31  and  C25_32
REMARK                            x       y       z     vdW  Elec       q    Type
REMARK                         _______ _______ _______ _____ _____    ______ ____
ROOT
ATOM     16  C   UNL     1      48.589  18.662  21.203  0.00  0.00    +0.078 C 
ATOM     17  C   UNL     1      47.474  17.837  20.615  0.00  0.00    +0.014 A 
ATOM     18  C   UNL     1      46.242  18.388  20.358  0.00  0.00    -0.045 A 
ATOM     19  C   UNL     1      45.233  17.605  19.804  0.00  0.00    +0.173 A 
ATOM     22  C   UNL     1      45.464  16.270  19.505  0.00  0.00    -0.164 A 
ATOM     23  C   UNL     1      46.701  15.704  19.762  0.00  0.00    +0.185 A 
ATOM     26  C   UNL     1      47.714  16.488  20.329  0.00  0.00    -0.113 A 
ATOM     27  C   UNL     1      49.029  15.919  20.653  0.00  0.00    +0.255 C 
ATOM     28  C   UNL     1      49.456  14.610  20.039  0.00  0.00    +0.130 C 
ATOM     29  N   UNL     1      49.822  16.541  21.462  0.00  0.00    -0.539 NA
ATOM     30  C   UNL     1      49.444  17.787  22.118  0.00  0.00    +0.164 C 
ATOM     31  C   UNL     1      50.711  18.554  22.504  0.00  0.00    +0.050 C 
ENDROOT
BRANCH  16  15
ATOM      1  C   UNL     1      49.544  21.373  21.356  0.00  0.00    +0.097 C 
ATOM      2  C   UNL     1      49.908  20.524  20.166  0.00  0.00    -0.030 A 
ATOM      3  C   UNL     1      50.688  21.049  19.181  0.00  0.00    -0.016 A 
ATOM      4  C   UNL     1      51.034  20.266  18.066  0.00  0.00    +0.010 A 
ATOM      5  C   UNL     1      51.839  20.783  17.036  0.00  0.00    -0.022 A 
ATOM      6  C   UNL     1      52.159  20.002  15.968  0.00  0.00    +0.057 A 
ATOM      7  C   UNL     1      51.701  18.691  15.875  0.00  0.00    -0.100 A 
ATOM      8  C   UNL     1      50.911  18.148  16.862  0.00  0.00    +0.150 A 
ATOM     11  C   UNL     1      50.564  18.932  17.981  0.00  0.00    -0.122 A 
ATOM     12  C   UNL     1      49.760  18.415  19.014  0.00  0.00    +0.168 A 
ATOM     15  C   UNL     1      49.446  19.213  20.092  0.00  0.00    -0.115 A 
BRANCH   8   9
ATOM      9  O   UNL     1      50.470  16.868  16.761  0.00  0.00    -0.315 OA
ATOM     10  C   UNL     1      51.463  15.843  16.689  0.00  0.00    +0.249 C 
ENDBRANCH   8   9
BRANCH  12  13
ATOM     13  O   UNL     1      49.298  17.139  18.950  0.00  0.00    -0.443 OA
ATOM     14  H   UNL     1      49.967  16.469  19.151  0.00  0.00    +0.385 HD
ENDBRANCH  12  13
ENDBRANCH  16  15
BRANCH  19  20
ATOM     20  O   UNL     1      44.015  18.152  19.555  0.00  0.00    -0.313 OA
ATOM     21  C   UNL     1      43.303  18.686  20.674  0.00  0.00    +0.240 C 
ENDBRANCH  19  20
BRANCH  23  24
ATOM     24  O   UNL     1      46.931  14.400  19.466  0.00  0.00    -0.301 OA
ATOM     25  C   UNL     1      46.074  13.793  18.499  0.00  0.00    +0.234 C 
ENDBRANCH  23  24
TORSDOF 5
ENDMDL
MODEL 4
REMARK VINA RESULT:      -5.2      4.556      7.153
REMARK  Name = ZINC95486022
REMARK  11 active torsions:
REMARK  status: ('A' for Active; 'I' for Inactive)
REMARK    1  A    between atoms: C1_1  and  C2_2
REMARK    2  A    between atoms: C8_8  and  O4_31
REMARK    3  A    between atoms: C10_10  and  O3_30
REMARK    4  A    between atoms: C11_11  and  C12_12
REMARK    5  A    between atoms: C15_16  and  O2_28
REMARK    6  A    between atoms: C17_18  and  O1_26
REMARK    7  A    between atoms: C19_20  and  C22_25
REMARK    8  A    between atoms: C20_22  and  C21_24
REMARK    9  A    between atoms: O1_26  and  C23_27
REMARK   10  A    between atoms: O2_28  and  C24_29
REMARK   11  A    between atoms: O4_31  and  C25_32
REMARK                            x       y       z     vdW  Elec       q    Type
REMARK                         _______ _______ _______ _____ _____    ______ ____
ROOT
ATOM     16  C   UNL     1      46.949  12.809  19.420  0.00  0.00    +0.078 C 
ATOM     17  C   UNL     1      47.072  12.459  17.959  0.00  0.00    +0.014 A 
ATOM     18  C   UNL     1      46.106  11.718  17.322  0.00  0.00    -0.045 A 
ATOM     19  C   UNL     1      46.240  11.418  15.970  0.00  0.00    +0.173 A 
ATOM     22  C   UNL     1      47.343  11.865  15.257  0.00  0.00    -0.164 A 
ATOM     23  C   UNL     1      48.323  12.611  15.890  0.00  0.00    +0.185 A 
ATOM     26  C   UNL     1      48.195  12.904  17.253  0.00  0.00    -0.113 A 
ATOM     27  C   UNL     1      49.229  13.661  17.972  0.00  0.00    +0.255 C 
ATOM     28  C   UNL     1      50.246  14.465  17.204  0.00  0.00    +0.130 C 
ATOM     29  N   UNL     1      49.268  13.637  19.263  0.00  0.00    -0.539 NA
ATOM     30  C   UNL     1      48.337  12.841  20.057  0.00  0.00    +0.164 C 
ATOM     31  C   UNL     1      48.232  13.444  21.459  0.00  0.00    +0.050 C 
ENDROOT
BRANCH  16  15
ATOM      1  C   UNL     1      45.166  13.313  21.622  0.00  0.00    +0.097 C 
ATOM      2  C   UNL     1      45.440  14.408  20.623  0.00  0.00    -0.030 A 
ATOM      3  C   UNL     1      44.844  15.622  20.779  0.00  0.00    -0.016 A 
ATOM      4  C   UNL     1      45.093  16.650  19.853  0.00  0.00    +0.010 A 
ATOM      5  C   UNL     1      44.491  17.914  19.991  0.00  0.00    -0.022 A 
ATOM      6  C   UNL     1      44.750  18.891  19.080  0.00  0.00    +0.057 A 
ATOM      7  C   UNL     1      45.606  18.664  18.006  0.00  0.00    -0.100 A 
ATOM      8  C   UNL     1      46.213  17.440  17.836  0.00  0.00    +0.150 A 
ATOM     11  C   UNL     1      45.965  16.409  18.764  0.00  0.00    -0.122 A 
ATOM     12  C   UNL     1      46.568  15.144  18.628  0.00  0.00    +0.168 A 
ATOM     15  C   UNL     1      46.302  14.163  19.558  0.00  0.00    -0.115 A 
BRANCH   8   9
ATOM      9  O   UNL     1      47.046  17.229  16.784  0.00  0.00    -0.315 OA
ATOM     10  C   UNL     1      48.366  17.766  16.883  0.00  0.00    +0.249 C 
ENDBRANCH   8   9
BRANCH  12  13
ATOM     13  O   UNL     1      47.407  14.892  17.589  0.00  0.00    -0.443 OA
ATOM     14  H   UNL     1      48.254  14.508  17.853  0.00  0.00    +0.385 HD
ENDBRANCH  12  13
ENDBRANCH  16  15
BRANCH  19  20
ATOM     20  O   UNL     1      45.285  10.682  15.345  0.00  0.00    -0.313 OA
ATOM     21  C   UNL     1      43.932  10.893  15.756  0.00  0.00    +0.240 C 
ENDBRANCH  19  20
BRANCH  23  24
ATOM     24  O   UNL     1      49.401  13.055  15.194  0.00  0.00    -0.301 OA
ATOM     25  C   UNL     1      49.587  12.526  13.880  0.00  0.00    +0.234 C 
ENDBRANCH  23  24
TORSDOF 5
ENDMDL
MODEL 5
REMARK VINA RESULT:      -5.2      1.955      6.234
REMARK  Name = ZINC95486022
REMARK  11 active torsions:
REMARK  status: ('A' for Active; 'I' for Inactive)
REMARK    1  A    between atoms: C1_1  and  C2_2
REMARK    2  A    between atoms: C8_8  and  O4_31
REMARK    3  A    between atoms: C10_10  and  O3_30
REMARK    4  A    between atoms: C11_11  and  C12_12
REMARK    5  A    between atoms: C15_16  and  O2_28
REMARK    6  A    between atoms: C17_18  and  O1_26
REMARK    7  A    between atoms: C19_20  and  C22_25
REMARK    8  A    between atoms: C20_22  and  C21_24
REMARK    9  A    between atoms: O1_26  and  C23_27
REMARK   10  A    between atoms: O2_28  and  C24_29
REMARK   11  A    between atoms: O4_31  and  C25_32
REMARK                            x       y       z     vdW  Elec       q    Type
REMARK                         _______ _______ _______ _____ _____    ______ ____
ROOT
ATOM     16  C   UNL     1      49.923  20.871  21.394  0.00  0.00    +0.078 C 
ATOM     17  C   UNL     1      48.428  20.707  21.297  0.00  0.00    +0.014 A 
ATOM     18  C   UNL     1      47.618  21.763  20.955  0.00  0.00    -0.045 A 
ATOM     19  C   UNL     1      46.241  21.580  20.862  0.00  0.00    +0.173 A 
ATOM     22  C   UNL     1      45.680  20.336  21.108  0.00  0.00    -0.164 A 
ATOM     23  C   UNL     1      46.487  19.265  21.454  0.00  0.00    +0.185 A 
ATOM     26  C   UNL     1      47.871  19.451  21.559  0.00  0.00    -0.113 A 
ATOM     27  C   UNL     1      48.761  18.352  21.961  0.00  0.00    +0.255 C 
ATOM     28  C   UNL     1      48.276  16.926  21.892  0.00  0.00    +0.130 C 
ATOM     29  N   UNL     1      49.958  18.607  22.372  0.00  0.00    -0.539 NA
ATOM     30  C   UNL     1      50.465  19.968  22.501  0.00  0.00    +0.164 C 
ATOM     31  C   UNL     1      51.993  19.943  22.424  0.00  0.00    +0.050 C 
ENDROOT
BRANCH  16  15
ATOM      1  C   UNL     1      52.239  22.306  20.467  0.00  0.00    +0.097 C 
ATOM      2  C   UNL     1      51.677  21.185  19.632  0.00  0.00    -0.030 A 
ATOM      3  C   UNL     1      52.276  20.862  18.452  0.00  0.00    -0.016 A 
ATOM      4  C   UNL     1      51.760  19.817  17.666  0.00  0.00    +0.010 A 
ATOM      5  C   UNL     1      52.359  19.462  16.444  0.00  0.00    -0.022 A 
ATOM      6  C   UNL     1      51.839  18.446  15.703  0.00  0.00    +0.057 A 
ATOM      7  C   UNL     1      50.716  17.745  16.134  0.00  0.00    -0.100 A 
ATOM      8  C   UNL     1      50.100  18.062  17.324  0.00  0.00    +0.150 A 
ATOM     11  C   UNL     1      50.617  19.109  18.113  0.00  0.00    -0.122 A 
ATOM     12  C   UNL     1      50.019  19.464  19.337  0.00  0.00    +0.168 A 
ATOM     15  C   UNL     1      50.557  20.491  20.081  0.00  0.00    -0.115 A 
BRANCH   8   9
ATOM      9  O   UNL     1      49.005  17.372  17.734  0.00  0.00    -0.315 OA
ATOM     10  C   UNL     1      47.909  17.293  16.821  0.00  0.00    +0.249 C 
ENDBRANCH   8   9
BRANCH  12  13
ATOM     13  O   UNL     1      48.922  18.798  19.782  0.00  0.00    -0.443 OA
ATOM     14  H   UNL     1      48.572  18.153  19.153  0.00  0.00    +0.385 HD
ENDBRANCH  12  13
ENDBRANCH  16  15
BRANCH  19  20
ATOM     20  O   UNL     1      45.443  22.627  20.527  0.00  0.00    -0.313 OA
ATOM     21  C   UNL     1      44.265  22.329  19.774  0.00  0.00    +0.240 C 
ENDBRANCH  19  20
BRANCH  23  24
ATOM     24  O   UNL     1      45.941  18.045  21.691  0.00  0.00    -0.301 OA
ATOM     25  C   UNL     1      44.759  17.711  20.962  0.00  0.00    +0.234 C 
ENDBRANCH  23  24
TORSDOF 5
ENDMDL
MODEL 6
REMARK VINA RESULT:      -5.1      2.708      5.140
REMARK  Name = ZINC95486022
REMARK  11 active torsions:
REMARK  status: ('A' for Active; 'I' for Inactive)
REMARK    1  A    between atoms: C1_1  and  C2_2
REMARK    2  A    between atoms: C8_8  and  O4_31
REMARK    3  A    between atoms: C10_10  and  O3_30
REMARK    4  A    between atoms: C11_11  and  C12_12
REMARK    5  A    between atoms: C15_16  and  O2_28
REMARK    6  A    between atoms: C17_18  and  O1_26
REMARK    7  A    between atoms: C19_20  and  C22_25
REMARK    8  A    between atoms: C20_22  and  C21_24
REMARK    9  A    between atoms: O1_26  and  C23_27
REMARK   10  A    between atoms: O2_28  and  C24_29
REMARK   11  A    between atoms: O4_31  and  C25_32
REMARK                            x       y       z     vdW  Elec       q    Type
REMARK                         _______ _______ _______ _____ _____    ______ ____
ROOT
ATOM     16  C   UNL     1      51.419  19.186  20.257  0.00  0.00    +0.078 C 
ATOM     17  C   UNL     1      51.502  17.730  19.875  0.00  0.00    +0.014 A 
ATOM     18  C   UNL     1      51.445  16.741  20.828  0.00  0.00    -0.045 A 
ATOM     19  C   UNL     1      51.512  15.405  20.446  0.00  0.00    +0.173 A 
ATOM     22  C   UNL     1      51.634  15.062  19.108  0.00  0.00    -0.164 A 
ATOM     23  C   UNL     1      51.694  16.050  18.139  0.00  0.00    +0.185 A 
ATOM     26  C   UNL     1      51.637  17.395  18.523  0.00  0.00    -0.113 A 
ATOM     27  C   UNL     1      51.735  18.477  17.533  0.00  0.00    +0.255 C 
ATOM     28  C   UNL     1      51.510  18.184  16.071  0.00  0.00    +0.130 C 
ATOM     29  N   UNL     1      52.014  19.679  17.914  0.00  0.00    -0.539 NA
ATOM     30  C   UNL     1      52.285  20.012  19.308  0.00  0.00    +0.164 C 
ATOM     31  C   UNL     1      51.998  21.498  19.533  0.00  0.00    +0.050 C 
ENDROOT
BRANCH  16  15
ATOM      1  C   UNL     1      50.502  21.321  21.954  0.00  0.00    +0.097 C 
ATOM      2  C   UNL     1      49.544  20.682  20.982  0.00  0.00    -0.030 A 
ATOM      3  C   UNL     1      48.259  21.127  20.917  0.00  0.00    -0.016 A 
ATOM      4  C   UNL     1      47.357  20.538  20.014  0.00  0.00    +0.010 A 
ATOM      5  C   UNL     1      46.025  20.978  19.925  0.00  0.00    -0.022 A 
ATOM      6  C   UNL     1      45.173  20.391  19.041  0.00  0.00    +0.057 A 
ATOM      7  C   UNL     1      45.598  19.353  18.216  0.00  0.00    -0.100 A 
ATOM      8  C   UNL     1      46.894  18.893  18.273  0.00  0.00    +0.150 A 
ATOM     11  C   UNL     1      47.799  19.483  19.178  0.00  0.00    -0.122 A 
ATOM     12  C   UNL     1      49.133  19.044  19.267  0.00  0.00    +0.168 A 
ATOM     15  C   UNL     1      49.988  19.649  20.162  0.00  0.00    -0.115 A 
BRANCH   8   9
ATOM      9  O   UNL     1      47.298  17.880  17.464  0.00  0.00    -0.315 OA
ATOM     10  C   UNL     1      46.375  16.808  17.257  0.00  0.00    +0.249 C 
ENDBRANCH   8   9
BRANCH  12  13
ATOM     13  O   UNL     1      49.577  18.033  18.474  0.00  0.00    -0.443 OA
ATOM     14  H   UNL     1      50.413  17.643  18.765  0.00  0.00    +0.385 HD
ENDBRANCH  12  13
ENDBRANCH  16  15
BRANCH  19  20
ATOM     20  O   UNL     1      51.459  14.431  21.391  0.00  0.00    -0.313 OA
ATOM     21  C   UNL     1      52.254  13.264  21.165  0.00  0.00    +0.240 C 
ENDBRANCH  19  20
BRANCH  23  24
ATOM     24  O   UNL     1      51.808  15.717  16.829  0.00  0.00    -0.301 OA
ATOM     25  C   UNL     1      51.187  14.500  16.411  0.00  0.00    +0.234 C 
ENDBRANCH  23  24
TORSDOF 5
ENDMDL
MODEL 7
REMARK VINA RESULT:      -5.1      3.290      5.368
REMARK  Name = ZINC95486022
REMARK  11 active torsions:
REMARK  status: ('A' for Active; 'I' for Inactive)
REMARK    1  A    between atoms: C1_1  and  C2_2
REMARK    2  A    between atoms: C8_8  and  O4_31
REMARK    3  A    between atoms: C10_10  and  O3_30
REMARK    4  A    between atoms: C11_11  and  C12_12
REMARK    5  A    between atoms: C15_16  and  O2_28
REMARK    6  A    between atoms: C17_18  and  O1_26
REMARK    7  A    between atoms: C19_20  and  C22_25
REMARK    8  A    between atoms: C20_22  and  C21_24
REMARK    9  A    between atoms: O1_26  and  C23_27
REMARK   10  A    between atoms: O2_28  and  C24_29
REMARK   11  A    between atoms: O4_31  and  C25_32
REMARK                            x       y       z     vdW  Elec       q    Type
REMARK                         _______ _______ _______ _____ _____    ______ ____
ROOT
ATOM     16  C   UNL     1      51.998  18.584  18.321  0.00  0.00    +0.078 C 
ATOM     17  C   UNL     1      52.316  17.313  19.065  0.00  0.00    +0.014 A 
ATOM     18  C   UNL     1      52.884  17.345  20.316  0.00  0.00    -0.045 A 
ATOM     19  C   UNL     1      53.157  16.156  20.986  0.00  0.00    +0.173 A 
ATOM     22  C   UNL     1      52.856  14.935  20.401  0.00  0.00    -0.164 A 
ATOM     23  C   UNL     1      52.285  14.891  19.139  0.00  0.00    +0.185 A 
ATOM     26  C   UNL     1      52.020  16.086  18.460  0.00  0.00    -0.113 A 
ATOM     27  C   UNL     1      51.450  16.085  17.106  0.00  0.00    +0.255 C 
ATOM     28  C   UNL     1      50.782  14.844  16.571  0.00  0.00    +0.130 C 
ATOM     29  N   UNL     1      51.521  17.146  16.373  0.00  0.00    -0.539 NA
ATOM     30  C   UNL     1      52.194  18.360  16.822  0.00  0.00    +0.164 C 
ATOM     31  C   UNL     1      51.627  19.559  16.058  0.00  0.00    +0.050 C 
ENDROOT
BRANCH  16  15
ATOM      1  C   UNL     1      51.306  21.370  18.524  0.00  0.00    +0.097 C 
ATOM      2  C   UNL     1      50.233  20.324  18.685  0.00  0.00    -0.030 A 
ATOM      3  C   UNL     1      48.949  20.713  18.919  0.00  0.00    -0.016 A 
ATOM      4  C   UNL     1      47.940  19.746  19.071  0.00  0.00    +0.010 A 
ATOM      5  C   UNL     1      46.606  20.119  19.313  0.00  0.00    -0.022 A 
ATOM      6  C   UNL     1      45.648  19.162  19.455  0.00  0.00    +0.057 A 
ATOM      7  C   UNL     1      45.966  17.809  19.365  0.00  0.00    -0.100 A 
ATOM      8  C   UNL     1      47.261  17.403  19.130  0.00  0.00    +0.150 A 
ATOM     11  C   UNL     1      48.273  18.372  18.977  0.00  0.00    -0.122 A 
ATOM     12  C   UNL     1      49.608  18.000  18.734  0.00  0.00    +0.168 A 
ATOM     15  C   UNL     1      50.568  18.977  18.587  0.00  0.00    -0.115 A 
BRANCH   8   9
ATOM      9  O   UNL     1      47.559  16.082  19.044  0.00  0.00    -0.315 OA
ATOM     10  C   UNL     1      46.669  15.263  18.282  0.00  0.00    +0.249 C 
ENDBRANCH   8   9
BRANCH  12  13
ATOM     13  O   UNL     1      49.948  16.688  18.641  0.00  0.00    -0.443 OA
ATOM     14  H   UNL     1      50.007  16.236  19.494  0.00  0.00    +0.385 HD
ENDBRANCH  12  13
ENDBRANCH  16  15
BRANCH  19  20
ATOM     20  O   UNL     1      53.721  16.192  22.221  0.00  0.00    -0.313 OA
ATOM     21  C   UNL     1      55.121  16.479  22.286  0.00  0.00    +0.240 C 
ENDBRANCH  19  20
BRANCH  23  24
ATOM     24  O   UNL     1      51.985  13.698  18.566  0.00  0.00    -0.301 OA
ATOM     25  C   UNL     1      52.906  12.626  18.778  0.00  0.00    +0.234 C 
ENDBRANCH  23  24
TORSDOF 5
ENDMDL
MODEL 8
REMARK VINA RESULT:      -5.1      2.826      5.935
REMARK  Name = ZINC95486022
REMARK  11 active torsions:
REMARK  status: ('A' for Active; 'I' for Inactive)
REMARK    1  A    between atoms: C1_1  and  C2_2
REMARK    2  A    between atoms: C8_8  and  O4_31
REMARK    3  A    between atoms: C10_10  and  O3_30
REMARK    4  A    between atoms: C11_11  and  C12_12
REMARK    5  A    between atoms: C15_16  and  O2_28
REMARK    6  A    between atoms: C17_18  and  O1_26
REMARK    7  A    between atoms: C19_20  and  C22_25
REMARK    8  A    between atoms: C20_22  and  C21_24
REMARK    9  A    between atoms: O1_26  and  C23_27
REMARK   10  A    between atoms: O2_28  and  C24_29
REMARK   11  A    between atoms: O4_31  and  C25_32
REMARK                            x       y       z     vdW  Elec       q    Type
REMARK                         _______ _______ _______ _____ _____    ______ ____
ROOT
ATOM     16  C   UNL     1      46.819  17.742  19.771  0.00  0.00    +0.078 C 
ATOM     17  C   UNL     1      47.114  16.325  19.351  0.00  0.00    +0.014 A 
ATOM     18  C   UNL     1      46.678  15.837  18.143  0.00  0.00    -0.045 A 
ATOM     19  C   UNL     1      46.973  14.528  17.775  0.00  0.00    +0.173 A 
ATOM     22  C   UNL     1      47.710  13.711  18.619  0.00  0.00    -0.164 A 
ATOM     23  C   UNL     1      48.154  14.192  19.840  0.00  0.00    +0.185 A 
ATOM     26  C   UNL     1      47.847  15.505  20.215  0.00  0.00    -0.113 A 
ATOM     27  C   UNL     1      48.265  16.045  21.517  0.00  0.00    +0.255 C 
ATOM     28  C   UNL     1      49.347  15.354  22.307  0.00  0.00    +0.130 C 
ATOM     29  N   UNL     1      47.706  17.111  21.985  0.00  0.00    -0.539 NA
ATOM     30  C   UNL     1      46.625  17.795  21.286  0.00  0.00    +0.164 C 
ATOM     31  C   UNL     1      46.584  19.258  21.734  0.00  0.00    +0.050 C 
ENDROOT
BRANCH  16  15
ATOM      1  C   UNL     1      46.330  20.507  19.139  0.00  0.00    +0.097 C 
ATOM      2  C   UNL     1      47.736  19.968  19.076  0.00  0.00    -0.030 A 
ATOM      3  C   UNL     1      48.756  20.799  18.726  0.00  0.00    -0.016 A 
ATOM      4  C   UNL     1      50.072  20.307  18.665  0.00  0.00    +0.010 A 
ATOM      5  C   UNL     1      51.145  21.143  18.307  0.00  0.00    -0.022 A 
ATOM      6  C   UNL     1      52.409  20.641  18.256  0.00  0.00    +0.057 A 
ATOM      7  C   UNL     1      52.663  19.305  18.553  0.00  0.00    -0.100 A 
ATOM      8  C   UNL     1      51.640  18.454  18.907  0.00  0.00    +0.150 A 
ATOM     11  C   UNL     1      50.321  18.947  18.970  0.00  0.00    -0.122 A 
ATOM     12  C   UNL     1      49.247  18.111  19.329  0.00  0.00    +0.168 A 
ATOM     15  C   UNL     1      47.972  18.631  19.382  0.00  0.00    -0.115 A 
BRANCH   8   9
ATOM      9  O   UNL     1      51.900  17.153  19.195  0.00  0.00    -0.315 OA
ATOM     10  C   UNL     1      53.263  16.731  19.119  0.00  0.00    +0.249 C 
ENDBRANCH   8   9
BRANCH  12  13
ATOM     13  O   UNL     1      49.464  16.803  19.625  0.00  0.00    -0.443 OA
ATOM     14  H   UNL     1      49.971  16.327  18.952  0.00  0.00    +0.385 HD
ENDBRANCH  12  13
ENDBRANCH  16  15
BRANCH  19  20
ATOM     20  O   UNL     1      46.537  14.048  16.581  0.00  0.00    -0.313 OA
ATOM     21  C   UNL     1      47.491  13.351  15.776  0.00  0.00    +0.240 C 
ENDBRANCH  19  20
BRANCH  23  24
ATOM     24  O   UNL     1      48.879  13.396  20.666  0.00  0.00    -0.301 OA
ATOM     25  C   UNL     1      48.810  11.988  20.437  0.00  0.00    +0.234 C 
ENDBRANCH  23  24
TORSDOF 5
ENDMDL
MODEL 9
REMARK VINA RESULT:      -5.1      3.238      5.915
REMARK  Name = ZINC95486022
REMARK  11 active torsions:
REMARK  status: ('A' for Active; 'I' for Inactive)
REMARK    1  A    between atoms: C1_1  and  C2_2
REMARK    2  A    between atoms: C8_8  and  O4_31
REMARK    3  A    between atoms: C10_10  and  O3_30
REMARK    4  A    between atoms: C11_11  and  C12_12
REMARK    5  A    between atoms: C15_16  and  O2_28
REMARK    6  A    between atoms: C17_18  and  O1_26
REMARK    7  A    between atoms: C19_20  and  C22_25
REMARK    8  A    between atoms: C20_22  and  C21_24
REMARK    9  A    between atoms: O1_26  and  C23_27
REMARK   10  A    between atoms: O2_28  and  C24_29
REMARK   11  A    between atoms: O4_31  and  C25_32
REMARK                            x       y       z     vdW  Elec       q    Type
REMARK                         _______ _______ _______ _____ _____    ______ ____
ROOT
ATOM     16  C   UNL     1      45.823  16.597  18.732  0.00  0.00    +0.078 C 
ATOM     17  C   UNL     1      46.558  15.359  18.287  0.00  0.00    +0.014 A 
ATOM     18  C   UNL     1      46.644  15.023  16.957  0.00  0.00    -0.045 A 
ATOM     19  C   UNL     1      47.337  13.880  16.573  0.00  0.00    +0.173 A 
ATOM     22  C   UNL     1      47.948  13.076  17.524  0.00  0.00    -0.164 A 
ATOM     23  C   UNL     1      47.866  13.403  18.868  0.00  0.00    +0.185 A 
ATOM     26  C   UNL     1      47.159  14.548  19.256  0.00  0.00    -0.113 A 
ATOM     27  C   UNL     1      47.015  14.913  20.672  0.00  0.00    +0.255 C 
ATOM     28  C   UNL     1      47.930  14.305  21.704  0.00  0.00    +0.130 C 
ATOM     29  N   UNL     1      46.105  15.755  21.034  0.00  0.00    -0.539 NA
ATOM     30  C   UNL     1      45.163  16.341  20.086  0.00  0.00    +0.164 C 
ATOM     31  C   UNL     1      44.644  17.665  20.649  0.00  0.00    +0.050 C 
ENDROOT
BRANCH  16  15
ATOM      1  C   UNL     1      44.909  19.294  18.317  0.00  0.00    +0.097 C 
ATOM      2  C   UNL     1      46.356  19.045  18.657  0.00  0.00    -0.030 A 
ATOM      3  C   UNL     1      47.209  20.100  18.768  0.00  0.00    -0.016 A 
ATOM      4  C   UNL     1      48.561  19.879  19.085  0.00  0.00    +0.010 A 
ATOM      5  C   UNL     1      49.464  20.950  19.207  0.00  0.00    -0.022 A 
ATOM      6  C   UNL     1      50.767  20.707  19.516  0.00  0.00    +0.057 A 
ATOM      7  C   UNL     1      51.228  19.409  19.715  0.00  0.00    -0.100 A 
ATOM      8  C   UNL     1      50.375  18.333  19.604  0.00  0.00    +0.150 A 
ATOM     11  C   UNL     1      49.020  18.554  19.287  0.00  0.00    -0.122 A 
ATOM     12  C   UNL     1      48.115  17.483  19.166  0.00  0.00    +0.168 A 
ATOM     15  C   UNL     1      46.797  17.740  18.858  0.00  0.00    -0.115 A 
BRANCH   8   9
ATOM      9  O   UNL     1      50.836  17.071  19.800  0.00  0.00    -0.315 OA
ATOM     10  C   UNL     1      52.095  16.741  19.210  0.00  0.00    +0.249 C 
ENDBRANCH   8   9
BRANCH  12  13
ATOM     13  O   UNL     1      48.536  16.205  19.354  0.00  0.00    -0.443 OA
ATOM     14  H   UNL     1      49.363  16.133  19.851  0.00  0.00    +0.385 HD
ENDBRANCH  12  13
ENDBRANCH  16  15
BRANCH  19  20
ATOM     20  O   UNL     1      47.417  13.550  15.258  0.00  0.00    -0.313 OA
ATOM     21  C   UNL     1      48.182  12.388  14.927  0.00  0.00    +0.240 C 
ENDBRANCH  19  20
BRANCH  23  24
ATOM     24  O   UNL     1      48.466  12.621  19.800  0.00  0.00    -0.301 OA
ATOM     25  C   UNL     1      48.745  11.270  19.432  0.00  0.00    +0.234 C 
ENDBRANCH  23  24
TORSDOF 5
ENDMDL
