MODEL 1
REMARK VINA RESULT:      -7.1      0.000      0.000
REMARK  Name = ZINC85999636
REMARK  8 active torsions:
REMARK  status: ('A' for Active; 'I' for Inactive)
REMARK    1  A    between atoms: C1_1  and  C2_2
REMARK    2  A    between atoms: C2_2  and  C25_30
REMARK    3  A    between atoms: C3_3  and  C4_4
REMARK    4  A    between atoms: C4_4  and  C5_5
REMARK    5  A    between atoms: C8_8  and  O3_23
REMARK    6  A    between atoms: C11_12  and  C14_17
REMARK    7  A    between atoms: C22_26  and  C23_28
REMARK    8  A    between atoms: C22_26  and  C24_29
REMARK                            x       y       z     vdW  Elec       q    Type
REMARK                         _______ _______ _______ _____ _____    ______ ____
ROOT
ATOM      6  C   UNL     1      44.691  20.805  19.793  0.00  0.00    -0.153 A 
ATOM      7  C   UNL     1      43.393  20.382  20.025  0.00  0.00    +0.224 A 
ATOM      8  C   UNL     1      43.150  19.150  20.655  0.00  0.00    -0.204 A 
ATOM      9  C   UNL     1      41.749  18.737  20.878  0.00  0.00    +0.058 C 
ATOM     10  C   UNL     1      40.794  19.367  20.195  0.00  0.00    -0.058 C 
ATOM     11  C   UNL     1      41.159  20.455  19.221  0.00  0.00    +0.150 C 
ATOM     12  C   UNL     1      41.416  19.835  17.846  0.00  0.00    +0.036 C 
ATOM     13  C   UNL     1      40.001  21.449  19.117  0.00  0.00    +0.085 C 
ATOM     14  C   UNL     1      44.214  18.345  21.054  0.00  0.00    +0.245 A 
ATOM     17  C   UNL     1      45.527  18.783  20.818  0.00  0.00    -0.306 A 
ATOM     18  C   UNL     1      46.671  17.964  21.234  0.00  0.00    +0.402 C 
ATOM     19  O   UNL     1      46.537  17.012  21.976  0.00  0.00    -0.428 OA
ATOM     20  C   UNL     1      48.028  18.362  20.678  0.00  0.00    +0.038 C 
ATOM     21  C   UNL     1      48.092  19.896  20.710  0.00  0.00    +0.234 C 
ATOM     28  O   UNL     1      47.026  20.430  19.925  0.00  0.00    -0.290 OA
ATOM     29  O   UNL     1      42.334  21.143  19.653  0.00  0.00    -0.291 OA
ATOM     30  C   UNL     1      45.763  20.014  20.175  0.00  0.00    +0.232 A 
ENDROOT
BRANCH  21  22
ATOM     22  C   UNL     1      49.412  20.356  20.144  0.00  0.00    -0.092 A 
ATOM     23  C   UNL     1      49.505  20.723  18.815  0.00  0.00    +0.038 A 
ATOM     24  C   UNL     1      50.715  21.145  18.298  0.00  0.00    +0.006 A 
ATOM     25  C   UNL     1      51.832  21.200  19.109  0.00  0.00    +0.015 A 
ATOM     26  C   UNL     1      51.740  20.834  20.439  0.00  0.00    +0.009 A 
ATOM     27  C   UNL     1      50.528  20.416  20.957  0.00  0.00    +0.023 A 
ENDBRANCH  21  22
BRANCH  14  15
ATOM     15  O   UNL     1      43.985  17.155  21.661  0.00  0.00    -0.472 OA
ATOM     16  H   UNL     1      43.970  16.402  21.056  0.00  0.00    +0.400 HD
ENDBRANCH  14  15
BRANCH   6   5
ATOM      5  C   UNL     1      44.940  22.128  19.116  0.00  0.00    +0.135 C 
BRANCH   5   4
ATOM      1  C   UNL     1      44.414  24.869  18.709  0.00  0.00    +0.073 C 
ATOM      2  C   UNL     1      45.190  24.420  19.919  0.00  0.00    -0.128 C 
ATOM      3  C   UNL     1      45.745  25.440  20.880  0.00  0.00    +0.070 C 
ATOM      4  C   UNL     1      45.383  23.142  20.138  0.00  0.00    -0.050 C 
ENDBRANCH   5   4
ENDBRANCH   6   5
TORSDOF 4
ENDMDL
MODEL 2
REMARK VINA RESULT:      -7.0      1.968      4.318
REMARK  Name = ZINC85999636
REMARK  8 active torsions:
REMARK  status: ('A' for Active; 'I' for Inactive)
REMARK    1  A    between atoms: C1_1  and  C2_2
REMARK    2  A    between atoms: C2_2  and  C25_30
REMARK    3  A    between atoms: C3_3  and  C4_4
REMARK    4  A    between atoms: C4_4  and  C5_5
REMARK    5  A    between atoms: C8_8  and  O3_23
REMARK    6  A    between atoms: C11_12  and  C14_17
REMARK    7  A    between atoms: C22_26  and  C23_28
REMARK    8  A    between atoms: C22_26  and  C24_29
REMARK                            x       y       z     vdW  Elec       q    Type
REMARK                         _______ _______ _______ _____ _____    ______ ____
ROOT
ATOM      6  C   UNL     1      45.120  19.896  19.212  0.00  0.00    -0.153 A 
ATOM      7  C   UNL     1      43.896  20.516  19.027  0.00  0.00    +0.224 A 
ATOM      8  C   UNL     1      43.647  21.779  19.591  0.00  0.00    -0.204 A 
ATOM      9  C   UNL     1      42.325  22.401  19.371  0.00  0.00    +0.058 C 
ATOM     10  C   UNL     1      41.330  21.623  18.946  0.00  0.00    -0.058 C 
ATOM     11  C   UNL     1      41.569  20.155  18.716  0.00  0.00    +0.150 C 
ATOM     12  C   UNL     1      41.305  19.392  20.016  0.00  0.00    +0.036 C 
ATOM     13  C   UNL     1      40.613  19.652  17.633  0.00  0.00    +0.085 C 
ATOM     14  C   UNL     1      44.632  22.418  20.339  0.00  0.00    +0.245 A 
ATOM     17  C   UNL     1      45.872  21.784  20.519  0.00  0.00    -0.306 A 
ATOM     18  C   UNL     1      46.935  22.435  21.293  0.00  0.00    +0.402 C 
ATOM     19  O   UNL     1      46.869  23.604  21.610  0.00  0.00    -0.428 OA
ATOM     20  C   UNL     1      48.116  21.563  21.688  0.00  0.00    +0.038 C 
ATOM     21  C   UNL     1      48.440  20.673  20.480  0.00  0.00    +0.234 C 
ATOM     28  O   UNL     1      47.295  19.888  20.150  0.00  0.00    -0.290 OA
ATOM     29  O   UNL     1      42.915  19.923  18.301  0.00  0.00    -0.291 OA
ATOM     30  C   UNL     1      46.110  20.513  19.960  0.00  0.00    +0.232 A 
ENDROOT
BRANCH  21  22
ATOM     22  C   UNL     1      49.593  19.763  20.820  0.00  0.00    -0.092 A 
ATOM     23  C   UNL     1      49.429  18.392  20.771  0.00  0.00    +0.038 A 
ATOM     24  C   UNL     1      50.487  17.559  21.083  0.00  0.00    +0.006 A 
ATOM     25  C   UNL     1      51.709  18.096  21.442  0.00  0.00    +0.015 A 
ATOM     26  C   UNL     1      51.873  19.468  21.489  0.00  0.00    +0.009 A 
ATOM     27  C   UNL     1      50.816  20.301  21.173  0.00  0.00    +0.023 A 
ENDBRANCH  21  22
BRANCH  14  15
ATOM     15  O   UNL     1      44.398  23.636  20.886  0.00  0.00    -0.472 OA
ATOM     16  H   UNL     1      45.200  24.123  21.119  0.00  0.00    +0.400 HD
ENDBRANCH  14  15
BRANCH   6   5
ATOM      5  C   UNL     1      45.375  18.541  18.603  0.00  0.00    +0.135 C 
BRANCH   5   4
ATOM      1  C   UNL     1      46.930  16.221  18.990  0.00  0.00    +0.073 C 
ATOM      2  C   UNL     1      45.601  16.364  19.685  0.00  0.00    -0.128 C 
ATOM      3  C   UNL     1      45.069  15.239  20.535  0.00  0.00    +0.070 C 
ATOM      4  C   UNL     1      44.906  17.468  19.551  0.00  0.00    -0.050 C 
ENDBRANCH   5   4
ENDBRANCH   6   5
TORSDOF 4
ENDMDL
MODEL 3
REMARK VINA RESULT:      -6.9      2.138      3.163
REMARK  Name = ZINC85999636
REMARK  8 active torsions:
REMARK  status: ('A' for Active; 'I' for Inactive)
REMARK    1  A    between atoms: C1_1  and  C2_2
REMARK    2  A    between atoms: C2_2  and  C25_30
REMARK    3  A    between atoms: C3_3  and  C4_4
REMARK    4  A    between atoms: C4_4  and  C5_5
REMARK    5  A    between atoms: C8_8  and  O3_23
REMARK    6  A    between atoms: C11_12  and  C14_17
REMARK    7  A    between atoms: C22_26  and  C23_28
REMARK    8  A    between atoms: C22_26  and  C24_29
REMARK                            x       y       z     vdW  Elec       q    Type
REMARK                         _______ _______ _______ _____ _____    ______ ____
ROOT
ATOM      6  C   UNL     1      46.379  19.182  20.131  0.00  0.00    -0.153 A 
ATOM      7  C   UNL     1      45.308  18.573  20.763  0.00  0.00    +0.224 A 
ATOM      8  C   UNL     1      45.137  17.181  20.686  0.00  0.00    -0.204 A 
ATOM      9  C   UNL     1      43.977  16.574  21.372  0.00  0.00    +0.058 C 
ATOM     10  C   UNL     1      42.980  17.376  21.743  0.00  0.00    -0.058 C 
ATOM     11  C   UNL     1      43.051  18.851  21.449  0.00  0.00    +0.150 C 
ATOM     12  C   UNL     1      42.449  19.119  20.068  0.00  0.00    +0.036 C 
ATOM     13  C   UNL     1      42.251  19.615  22.505  0.00  0.00    +0.085 C 
ATOM     14  C   UNL     1      46.047  16.402  19.976  0.00  0.00    +0.245 A 
ATOM     17  C   UNL     1      47.132  17.026  19.341  0.00  0.00    -0.306 A 
ATOM     18  C   UNL     1      48.114  16.234  18.592  0.00  0.00    +0.402 C 
ATOM     19  O   UNL     1      48.153  15.024  18.676  0.00  0.00    -0.428 OA
ATOM     20  C   UNL     1      49.069  17.007  17.698  0.00  0.00    +0.038 C 
ATOM     21  C   UNL     1      49.484  18.268  18.470  0.00  0.00    +0.234 C 
ATOM     28  O   UNL     1      48.322  19.035  18.783  0.00  0.00    -0.290 OA
ATOM     29  O   UNL     1      44.406  19.302  21.466  0.00  0.00    -0.291 OA
ATOM     30  C   UNL     1      47.290  18.425  19.412  0.00  0.00    +0.232 A 
ENDROOT
BRANCH  21  22
ATOM     22  C   UNL     1      50.417  19.093  17.621  0.00  0.00    -0.092 A 
ATOM     23  C   UNL     1      50.651  20.418  17.939  0.00  0.00    +0.038 A 
ATOM     24  C   UNL     1      51.507  21.174  17.160  0.00  0.00    +0.006 A 
ATOM     25  C   UNL     1      52.130  20.605  16.065  0.00  0.00    +0.015 A 
ATOM     26  C   UNL     1      51.897  19.280  15.748  0.00  0.00    +0.009 A 
ATOM     27  C   UNL     1      51.044  18.523  16.529  0.00  0.00    +0.023 A 
ENDBRANCH  21  22
BRANCH  14  15
ATOM     15  O   UNL     1      45.886  15.058  19.898  0.00  0.00    -0.472 OA
ATOM     16  H   UNL     1      45.895  14.713  18.995  0.00  0.00    +0.400 HD
ENDBRANCH  14  15
BRANCH   6   5
ATOM      5  C   UNL     1      46.552  20.677  20.219  0.00  0.00    +0.135 C 
BRANCH   5   4
ATOM      1  C   UNL     1      45.182  22.782  21.502  0.00  0.00    +0.073 C 
ATOM      2  C   UNL     1      44.726  22.296  20.151  0.00  0.00    -0.128 C 
ATOM      3  C   UNL     1      43.496  22.888  19.512  0.00  0.00    +0.070 C 
ATOM      4  C   UNL     1      45.398  21.358  19.530  0.00  0.00    -0.050 C 
ENDBRANCH   5   4
ENDBRANCH   6   5
TORSDOF 4
ENDMDL
MODEL 4
REMARK VINA RESULT:      -6.5      2.847      6.927
REMARK  Name = ZINC85999636
REMARK  8 active torsions:
REMARK  status: ('A' for Active; 'I' for Inactive)
REMARK    1  A    between atoms: C1_1  and  C2_2
REMARK    2  A    between atoms: C2_2  and  C25_30
REMARK    3  A    between atoms: C3_3  and  C4_4
REMARK    4  A    between atoms: C4_4  and  C5_5
REMARK    5  A    between atoms: C8_8  and  O3_23
REMARK    6  A    between atoms: C11_12  and  C14_17
REMARK    7  A    between atoms: C22_26  and  C23_28
REMARK    8  A    between atoms: C22_26  and  C24_29
REMARK                            x       y       z     vdW  Elec       q    Type
REMARK                         _______ _______ _______ _____ _____    ______ ____
ROOT
ATOM      6  C   UNL     1      46.117  16.836  19.093  0.00  0.00    -0.153 A 
ATOM      7  C   UNL     1      46.632  15.592  19.413  0.00  0.00    +0.224 A 
ATOM      8  C   UNL     1      46.113  14.867  20.499  0.00  0.00    -0.204 A 
ATOM      9  C   UNL     1      46.696  13.544  20.807  0.00  0.00    +0.058 C 
ATOM     10  C   UNL     1      47.879  13.242  20.274  0.00  0.00    -0.058 C 
ATOM     11  C   UNL     1      48.586  14.241  19.397  0.00  0.00    +0.150 C 
ATOM     12  C   UNL     1      49.465  15.142  20.267  0.00  0.00    +0.036 C 
ATOM     13  C   UNL     1      49.467  13.495  18.392  0.00  0.00    +0.085 C 
ATOM     14  C   UNL     1      45.074  15.395  21.261  0.00  0.00    +0.245 A 
ATOM     17  C   UNL     1      44.555  16.656  20.928  0.00  0.00    -0.306 A 
ATOM     18  C   UNL     1      43.453  17.237  21.703  0.00  0.00    +0.402 C 
ATOM     19  O   UNL     1      42.816  16.577  22.498  0.00  0.00    -0.428 OA
ATOM     20  C   UNL     1      43.162  18.710  21.468  0.00  0.00    +0.038 C 
ATOM     21  C   UNL     1      43.291  18.957  19.958  0.00  0.00    +0.234 C 
ATOM     28  O   UNL     1      44.608  18.608  19.533  0.00  0.00    -0.290 OA
ATOM     29  O   UNL     1      47.642  15.046  18.690  0.00  0.00    -0.291 OA
ATOM     30  C   UNL     1      45.089  17.382  19.844  0.00  0.00    +0.232 A 
ENDROOT
BRANCH  21  22
ATOM     22  C   UNL     1      43.036  20.413  19.663  0.00  0.00    -0.092 A 
ATOM     23  C   UNL     1      43.991  21.360  19.982  0.00  0.00    +0.038 A 
ATOM     24  C   UNL     1      43.756  22.695  19.711  0.00  0.00    +0.006 A 
ATOM     25  C   UNL     1      42.569  23.083  19.121  0.00  0.00    +0.015 A 
ATOM     26  C   UNL     1      41.614  22.136  18.802  0.00  0.00    +0.009 A 
ATOM     27  C   UNL     1      41.850  20.800  19.069  0.00  0.00    +0.023 A 
ENDBRANCH  21  22
BRANCH  14  15
ATOM     15  O   UNL     1      44.570  14.700  22.310  0.00  0.00    -0.472 OA
ATOM     16  H   UNL     1      45.031  14.859  23.145  0.00  0.00    +0.400 HD
ENDBRANCH  14  15
BRANCH   6   5
ATOM      5  C   UNL     1      46.683  17.605  17.927  0.00  0.00    +0.135 C 
BRANCH   5   4
ATOM      1  C   UNL     1      49.364  17.340  17.092  0.00  0.00    +0.073 C 
ATOM      2  C   UNL     1      48.982  18.412  18.078  0.00  0.00    -0.128 C 
ATOM      3  C   UNL     1      50.044  19.302  18.673  0.00  0.00    +0.070 C 
ATOM      4  C   UNL     1      47.727  18.572  18.421  0.00  0.00    -0.050 C 
ENDBRANCH   5   4
ENDBRANCH   6   5
TORSDOF 4
ENDMDL
MODEL 5
REMARK VINA RESULT:      -6.4      3.283      7.770
REMARK  Name = ZINC85999636
REMARK  8 active torsions:
REMARK  status: ('A' for Active; 'I' for Inactive)
REMARK    1  A    between atoms: C1_1  and  C2_2
REMARK    2  A    between atoms: C2_2  and  C25_30
REMARK    3  A    between atoms: C3_3  and  C4_4
REMARK    4  A    between atoms: C4_4  and  C5_5
REMARK    5  A    between atoms: C8_8  and  O3_23
REMARK    6  A    between atoms: C11_12  and  C14_17
REMARK    7  A    between atoms: C22_26  and  C23_28
REMARK    8  A    between atoms: C22_26  and  C24_29
REMARK                            x       y       z     vdW  Elec       q    Type
REMARK                         _______ _______ _______ _____ _____    ______ ____
ROOT
ATOM      6  C   UNL     1      49.629  17.933  19.022  0.00  0.00    -0.153 A 
ATOM      7  C   UNL     1      50.504  16.863  18.944  0.00  0.00    +0.224 A 
ATOM      8  C   UNL     1      50.014  15.556  18.778  0.00  0.00    -0.204 A 
ATOM      9  C   UNL     1      50.984  14.444  18.704  0.00  0.00    +0.058 C 
ATOM     10  C   UNL     1      52.228  14.670  19.123  0.00  0.00    -0.058 C 
ATOM     11  C   UNL     1      52.606  16.023  19.663  0.00  0.00    +0.150 C 
ATOM     12  C   UNL     1      52.337  16.058  21.169  0.00  0.00    +0.036 C 
ATOM     13  C   UNL     1      54.095  16.269  19.411  0.00  0.00    +0.085 C 
ATOM     14  C   UNL     1      48.643  15.328  18.687  0.00  0.00    +0.245 A 
ATOM     17  C   UNL     1      47.763  16.419  18.764  0.00  0.00    -0.306 A 
ATOM     18  C   UNL     1      46.314  16.215  18.662  0.00  0.00    +0.402 C 
ATOM     19  O   UNL     1      45.843  15.159  18.294  0.00  0.00    -0.428 OA
ATOM     20  C   UNL     1      45.434  17.392  19.052  0.00  0.00    +0.038 C 
ATOM     21  C   UNL     1      46.103  18.656  18.493  0.00  0.00    +0.234 C 
ATOM     28  O   UNL     1      47.416  18.778  19.039  0.00  0.00    -0.290 OA
ATOM     29  O   UNL     1      51.845  17.050  19.025  0.00  0.00    -0.291 OA
ATOM     30  C   UNL     1      48.261  17.725  18.942  0.00  0.00    +0.232 A 
ENDROOT
BRANCH  21  22
ATOM     22  C   UNL     1      45.287  19.866  18.871  0.00  0.00    -0.092 A 
ATOM     23  C   UNL     1      45.906  21.088  19.053  0.00  0.00    +0.038 A 
ATOM     24  C   UNL     1      45.157  22.197  19.400  0.00  0.00    +0.006 A 
ATOM     25  C   UNL     1      43.789  22.085  19.563  0.00  0.00    +0.015 A 
ATOM     26  C   UNL     1      43.170  20.862  19.380  0.00  0.00    +0.009 A 
ATOM     27  C   UNL     1      43.918  19.754  19.029  0.00  0.00    +0.023 A 
ENDBRANCH  21  22
BRANCH  14  15
ATOM     15  O   UNL     1      48.165  14.070  18.527  0.00  0.00    -0.472 OA
ATOM     16  H   UNL     1      47.200  14.014  18.523  0.00  0.00    +0.400 HD
ENDBRANCH  14  15
BRANCH   6   5
ATOM      5  C   UNL     1      50.166  19.330  19.202  0.00  0.00    +0.135 C 
BRANCH   5   4
ATOM      1  C   UNL     1      52.647  20.462  18.483  0.00  0.00    +0.073 C 
ATOM      2  C   UNL     1      51.472  20.558  17.545  0.00  0.00    -0.128 C 
ATOM      3  C   UNL     1      51.602  21.318  16.249  0.00  0.00    +0.070 C 
ATOM      4  C   UNL     1      50.337  19.980  17.854  0.00  0.00    -0.050 C 
ENDBRANCH   5   4
ENDBRANCH   6   5
TORSDOF 4
ENDMDL
MODEL 6
REMARK VINA RESULT:      -6.4      4.413      6.305
REMARK  Name = ZINC85999636
REMARK  8 active torsions:
REMARK  status: ('A' for Active; 'I' for Inactive)
REMARK    1  A    between atoms: C1_1  and  C2_2
REMARK    2  A    between atoms: C2_2  and  C25_30
REMARK    3  A    between atoms: C3_3  and  C4_4
REMARK    4  A    between atoms: C4_4  and  C5_5
REMARK    5  A    between atoms: C8_8  and  O3_23
REMARK    6  A    between atoms: C11_12  and  C14_17
REMARK    7  A    between atoms: C22_26  and  C23_28
REMARK    8  A    between atoms: C22_26  and  C24_29
REMARK                            x       y       z     vdW  Elec       q    Type
REMARK                         _______ _______ _______ _____ _____    ______ ____
ROOT
ATOM      6  C   UNL     1      45.686  17.193  19.119  0.00  0.00    -0.153 A 
ATOM      7  C   UNL     1      45.188  17.967  20.153  0.00  0.00    +0.224 A 
ATOM      8  C   UNL     1      44.646  17.358  21.298  0.00  0.00    -0.204 A 
ATOM      9  C   UNL     1      44.122  18.224  22.375  0.00  0.00    +0.058 C 
ATOM     10  C   UNL     1      43.879  19.502  22.089  0.00  0.00    -0.058 C 
ATOM     11  C   UNL     1      44.127  20.021  20.698  0.00  0.00    +0.150 C 
ATOM     12  C   UNL     1      42.864  19.830  19.855  0.00  0.00    +0.036 C 
ATOM     13  C   UNL     1      44.464  21.512  20.769  0.00  0.00    +0.085 C 
ATOM     14  C   UNL     1      44.610  15.970  21.403  0.00  0.00    +0.245 A 
ATOM     17  C   UNL     1      45.120  15.193  20.351  0.00  0.00    -0.306 A 
ATOM     18  C   UNL     1      45.106  13.728  20.433  0.00  0.00    +0.402 C 
ATOM     19  O   UNL     1      44.867  13.150  21.474  0.00  0.00    -0.428 OA
ATOM     20  C   UNL     1      45.394  12.973  19.145  0.00  0.00    +0.038 C 
ATOM     21  C   UNL     1      46.530  13.722  18.433  0.00  0.00    +0.234 C 
ATOM     28  O   UNL     1      46.124  15.065  18.175  0.00  0.00    -0.290 OA
ATOM     29  O   UNL     1      45.211  19.322  20.086  0.00  0.00    -0.291 OA
ATOM     30  C   UNL     1      45.651  15.810  19.201  0.00  0.00    +0.232 A 
ENDROOT
BRANCH  21  22
ATOM     22  C   UNL     1      46.846  13.032  17.129  0.00  0.00    -0.092 A 
ATOM     23  C   UNL     1      46.233  11.834  16.815  0.00  0.00    +0.038 A 
ATOM     24  C   UNL     1      46.523  11.202  15.620  0.00  0.00    +0.006 A 
ATOM     25  C   UNL     1      47.424  11.769  14.739  0.00  0.00    +0.015 A 
ATOM     26  C   UNL     1      48.036  12.968  15.053  0.00  0.00    +0.009 A 
ATOM     27  C   UNL     1      47.743  13.602  16.246  0.00  0.00    +0.023 A 
ENDBRANCH  21  22
BRANCH  14  15
ATOM     15  O   UNL     1      44.088  15.378  22.504  0.00  0.00    -0.472 OA
ATOM     16  H   UNL     1      43.124  15.425  22.556  0.00  0.00    +0.400 HD
ENDBRANCH  14  15
BRANCH   6   5
ATOM      5  C   UNL     1      46.263  17.857  17.895  0.00  0.00    +0.135 C 
BRANCH   5   4
ATOM      1  C   UNL     1      48.798  16.893  17.121  0.00  0.00    +0.073 C 
ATOM      2  C   UNL     1      48.687  18.137  17.965  0.00  0.00    -0.128 C 
ATOM      3  C   UNL     1      49.933  18.830  18.453  0.00  0.00    +0.070 C 
ATOM      4  C   UNL     1      47.507  18.616  18.274  0.00  0.00    -0.050 C 
ENDBRANCH   5   4
ENDBRANCH   6   5
TORSDOF 4
ENDMDL
MODEL 7
REMARK VINA RESULT:      -6.3      5.388      7.119
REMARK  Name = ZINC85999636
REMARK  8 active torsions:
REMARK  status: ('A' for Active; 'I' for Inactive)
REMARK    1  A    between atoms: C1_1  and  C2_2
REMARK    2  A    between atoms: C2_2  and  C25_30
REMARK    3  A    between atoms: C3_3  and  C4_4
REMARK    4  A    between atoms: C4_4  and  C5_5
REMARK    5  A    between atoms: C8_8  and  O3_23
REMARK    6  A    between atoms: C11_12  and  C14_17
REMARK    7  A    between atoms: C22_26  and  C23_28
REMARK    8  A    between atoms: C22_26  and  C24_29
REMARK                            x       y       z     vdW  Elec       q    Type
REMARK                         _______ _______ _______ _____ _____    ______ ____
ROOT
ATOM      6  C   UNL     1      47.782  16.636  18.064  0.00  0.00    -0.153 A 
ATOM      7  C   UNL     1      46.841  17.065  18.984  0.00  0.00    +0.224 A 
ATOM      8  C   UNL     1      45.830  16.193  19.424  0.00  0.00    -0.204 A 
ATOM      9  C   UNL     1      44.844  16.694  20.404  0.00  0.00    +0.058 C 
ATOM     10  C   UNL     1      44.746  18.011  20.576  0.00  0.00    -0.058 C 
ATOM     11  C   UNL     1      45.617  18.942  19.773  0.00  0.00    +0.150 C 
ATOM     12  C   UNL     1      44.908  19.290  18.463  0.00  0.00    +0.036 C 
ATOM     13  C   UNL     1      45.857  20.224  20.573  0.00  0.00    +0.085 C 
ATOM     14  C   UNL     1      45.770  14.889  18.939  0.00  0.00    +0.245 A 
ATOM     17  C   UNL     1      46.730  14.462  18.009  0.00  0.00    -0.306 A 
ATOM     18  C   UNL     1      46.701  13.091  17.485  0.00  0.00    +0.402 C 
ATOM     19  O   UNL     1      46.006  12.232  17.986  0.00  0.00    -0.428 OA
ATOM     20  C   UNL     1      47.577  12.809  16.275  0.00  0.00    +0.038 C 
ATOM     21  C   UNL     1      48.904  13.550  16.501  0.00  0.00    +0.234 C 
ATOM     28  O   UNL     1      48.648  14.945  16.649  0.00  0.00    -0.290 OA
ATOM     29  O   UNL     1      46.872  18.327  19.480  0.00  0.00    -0.291 OA
ATOM     30  C   UNL     1      47.733  15.346  17.563  0.00  0.00    +0.232 A 
ENDROOT
BRANCH  21  22
ATOM     22  C   UNL     1      49.811  13.327  15.317  0.00  0.00    -0.092 A 
ATOM     23  C   UNL     1      49.305  12.785  14.151  0.00  0.00    +0.038 A 
ATOM     24  C   UNL     1      50.137  12.582  13.066  0.00  0.00    +0.006 A 
ATOM     25  C   UNL     1      51.474  12.922  13.146  0.00  0.00    +0.015 A 
ATOM     26  C   UNL     1      51.980  13.464  14.312  0.00  0.00    +0.009 A 
ATOM     27  C   UNL     1      51.147  13.672  15.396  0.00  0.00    +0.023 A 
ENDBRANCH  21  22
BRANCH  14  15
ATOM     15  O   UNL     1      44.797  14.044  19.360  0.00  0.00    -0.472 OA
ATOM     16  H   UNL     1      43.923  14.239  18.995  0.00  0.00    +0.400 HD
ENDBRANCH  14  15
BRANCH   6   5
ATOM      5  C   UNL     1      48.860  17.581  17.598  0.00  0.00    +0.135 C 
BRANCH   5   4
ATOM      1  C   UNL     1      51.422  17.828  16.445  0.00  0.00    +0.073 C 
ATOM      2  C   UNL     1      51.279  17.455  17.898  0.00  0.00    -0.128 C 
ATOM      3  C   UNL     1      52.504  17.146  18.721  0.00  0.00    +0.070 C 
ATOM      4  C   UNL     1      50.091  17.398  18.447  0.00  0.00    -0.050 C 
ENDBRANCH   5   4
ENDBRANCH   6   5
TORSDOF 4
ENDMDL
MODEL 8
REMARK VINA RESULT:      -6.3      5.005      7.620
REMARK  Name = ZINC85999636
REMARK  8 active torsions:
REMARK  status: ('A' for Active; 'I' for Inactive)
REMARK    1  A    between atoms: C1_1  and  C2_2
REMARK    2  A    between atoms: C2_2  and  C25_30
REMARK    3  A    between atoms: C3_3  and  C4_4
REMARK    4  A    between atoms: C4_4  and  C5_5
REMARK    5  A    between atoms: C8_8  and  O3_23
REMARK    6  A    between atoms: C11_12  and  C14_17
REMARK    7  A    between atoms: C22_26  and  C23_28
REMARK    8  A    between atoms: C22_26  and  C24_29
REMARK                            x       y       z     vdW  Elec       q    Type
REMARK                         _______ _______ _______ _____ _____    ______ ____
ROOT
ATOM      6  C   UNL     1      49.847  17.063  18.567  0.00  0.00    -0.153 A 
ATOM      7  C   UNL     1      49.248  17.886  19.505  0.00  0.00    +0.224 A 
ATOM      8  C   UNL     1      47.903  17.693  19.863  0.00  0.00    -0.204 A 
ATOM      9  C   UNL     1      47.303  18.598  20.866  0.00  0.00    +0.058 C 
ATOM     10  C   UNL     1      47.935  19.739  21.136  0.00  0.00    -0.058 C 
ATOM     11  C   UNL     1      49.214  20.079  20.418  0.00  0.00    +0.150 C 
ATOM     12  C   UNL     1      48.884  20.833  19.129  0.00  0.00    +0.036 C 
ATOM     13  C   UNL     1      50.075  20.969  21.317  0.00  0.00    +0.085 C 
ATOM     14  C   UNL     1      47.163  16.668  19.280  0.00  0.00    +0.245 A 
ATOM     17  C   UNL     1      47.779  15.835  18.332  0.00  0.00    -0.306 A 
ATOM     18  C   UNL     1      47.031  14.739  17.705  0.00  0.00    +0.402 C 
ATOM     19  O   UNL     1      45.953  14.379  18.130  0.00  0.00    -0.428 OA
ATOM     20  C   UNL     1      47.672  14.090  16.489  0.00  0.00    +0.038 C 
ATOM     21  C   UNL     1      49.173  13.963  16.788  0.00  0.00    +0.234 C 
ATOM     28  O   UNL     1      49.717  15.257  17.039  0.00  0.00    -0.290 OA
ATOM     29  O   UNL     1      49.940  18.892  20.096  0.00  0.00    -0.291 OA
ATOM     30  C   UNL     1      49.125  16.043  17.969  0.00  0.00    +0.232 A 
ENDROOT
BRANCH  21  22
ATOM     22  C   UNL     1      49.871  13.344  15.603  0.00  0.00    -0.092 A 
ATOM     23  C   UNL     1      49.130  12.825  14.559  0.00  0.00    +0.038 A 
ATOM     24  C   UNL     1      49.770  12.258  13.472  0.00  0.00    +0.006 A 
ATOM     25  C   UNL     1      51.151  12.212  13.430  0.00  0.00    +0.015 A 
ATOM     26  C   UNL     1      51.891  12.733  14.474  0.00  0.00    +0.009 A 
ATOM     27  C   UNL     1      51.251  13.304  15.559  0.00  0.00    +0.023 A 
ENDBRANCH  21  22
BRANCH  14  15
ATOM     15  O   UNL     1      45.865  16.476  19.621  0.00  0.00    -0.472 OA
ATOM     16  H   UNL     1      45.444  17.252  20.014  0.00  0.00    +0.400 HD
ENDBRANCH  14  15
BRANCH   6   5
ATOM      5  C   UNL     1      51.290  17.282  18.189  0.00  0.00    +0.135 C 
BRANCH   5   4
ATOM      1  C   UNL     1      52.646  19.752  18.293  0.00  0.00    +0.073 C 
ATOM      2  C   UNL     1      51.942  19.329  17.030  0.00  0.00    -0.128 C 
ATOM      3  C   UNL     1      51.903  20.255  15.842  0.00  0.00    +0.070 C 
ATOM      4  C   UNL     1      51.362  18.155  16.964  0.00  0.00    -0.050 C 
ENDBRANCH   5   4
ENDBRANCH   6   5
TORSDOF 4
ENDMDL
MODEL 9
REMARK VINA RESULT:      -6.3      4.556      7.335
REMARK  Name = ZINC85999636
REMARK  8 active torsions:
REMARK  status: ('A' for Active; 'I' for Inactive)
REMARK    1  A    between atoms: C1_1  and  C2_2
REMARK    2  A    between atoms: C2_2  and  C25_30
REMARK    3  A    between atoms: C3_3  and  C4_4
REMARK    4  A    between atoms: C4_4  and  C5_5
REMARK    5  A    between atoms: C8_8  and  O3_23
REMARK    6  A    between atoms: C11_12  and  C14_17
REMARK    7  A    between atoms: C22_26  and  C23_28
REMARK    8  A    between atoms: C22_26  and  C24_29
REMARK                            x       y       z     vdW  Elec       q    Type
REMARK                         _______ _______ _______ _____ _____    ______ ____
ROOT
ATOM      6  C   UNL     1      46.969  17.655  18.499  0.00  0.00    -0.153 A 
ATOM      7  C   UNL     1      47.500  18.834  18.994  0.00  0.00    +0.224 A 
ATOM      8  C   UNL     1      48.886  19.063  18.944  0.00  0.00    -0.204 A 
ATOM      9  C   UNL     1      49.409  20.334  19.487  0.00  0.00    +0.058 C 
ATOM     10  C   UNL     1      48.616  21.048  20.285  0.00  0.00    -0.058 C 
ATOM     11  C   UNL     1      47.236  20.546  20.618  0.00  0.00    +0.150 C 
ATOM     12  C   UNL     1      47.310  19.660  21.864  0.00  0.00    +0.036 C 
ATOM     13  C   UNL     1      46.321  21.739  20.901  0.00  0.00    +0.085 C 
ATOM     14  C   UNL     1      49.735  18.107  18.394  0.00  0.00    +0.245 A 
ATOM     17  C   UNL     1      49.188  16.916  17.892  0.00  0.00    -0.306 A 
ATOM     18  C   UNL     1      50.053  15.891  17.297  0.00  0.00    +0.402 C 
ATOM     19  O   UNL     1      51.212  16.119  17.018  0.00  0.00    -0.428 OA
ATOM     20  C   UNL     1      49.425  14.528  17.059  0.00  0.00    +0.038 C 
ATOM     21  C   UNL     1      48.004  14.775  16.533  0.00  0.00    +0.234 C 
ATOM     28  O   UNL     1      47.268  15.531  17.494  0.00  0.00    -0.290 OA
ATOM     29  O   UNL     1      46.701  19.788  19.533  0.00  0.00    -0.291 OA
ATOM     30  C   UNL     1      47.799  16.687  17.956  0.00  0.00    +0.232 A 
ENDROOT
BRANCH  21  22
ATOM     22  C   UNL     1      47.317  13.453  16.300  0.00  0.00    -0.092 A 
ATOM     23  C   UNL     1      46.245  13.083  17.090  0.00  0.00    +0.038 A 
ATOM     24  C   UNL     1      45.616  11.871  16.876  0.00  0.00    +0.006 A 
ATOM     25  C   UNL     1      46.057  11.030  15.872  0.00  0.00    +0.015 A 
ATOM     26  C   UNL     1      47.129  11.400  15.082  0.00  0.00    +0.009 A 
ATOM     27  C   UNL     1      47.756  12.614  15.293  0.00  0.00    +0.023 A 
ENDBRANCH  21  22
BRANCH  14  15
ATOM     15  O   UNL     1      51.072  18.323  18.344  0.00  0.00    -0.472 OA
ATOM     16  H   UNL     1      51.446  18.666  19.167  0.00  0.00    +0.400 HD
ENDBRANCH  14  15
BRANCH   6   5
ATOM      5  C   UNL     1      45.481  17.419  18.560  0.00  0.00    +0.135 C 
BRANCH   5   4
ATOM      1  C   UNL     1      43.602  18.591  20.305  0.00  0.00    +0.073 C 
ATOM      2  C   UNL     1      44.303  17.315  20.695  0.00  0.00    -0.128 C 
ATOM      3  C   UNL     1      44.051  16.700  22.048  0.00  0.00    +0.070 C 
ATOM      4  C   UNL     1      45.132  16.740  19.858  0.00  0.00    -0.050 C 
ENDBRANCH   5   4
ENDBRANCH   6   5
TORSDOF 4
ENDMDL
