MODEL 1
REMARK VINA RESULT:      -6.9      0.000      0.000
REMARK  Name = ZINC38140514
REMARK  9 active torsions:
REMARK  status: ('A' for Active; 'I' for Inactive)
REMARK    1  A    between atoms: C1_1  and  C2_2
REMARK    2  A    between atoms: C5_5  and  O3_37
REMARK    3  A    between atoms: C6_7  and  C29_35
REMARK    4  A    between atoms: C6_7  and  C30_36
REMARK    5  A    between atoms: C10_12  and  C28_34
REMARK    6  A    between atoms: C15_18  and  C27_33
REMARK    7  A    between atoms: C18_21  and  C26_30
REMARK    8  A    between atoms: C21_25  and  C24_28
REMARK    9  A    between atoms: C21_25  and  C25_29
REMARK                            x       y       z     vdW  Elec       q    Type
REMARK                         _______ _______ _______ _____ _____    ______ ____
ROOT
ATOM      1  C   UNL     1      47.937  12.517  18.508  0.00  0.00    +0.025 C 
ATOM      2  C   UNL     1      47.463  13.372  17.337  0.00  0.00    -0.034 C 
ATOM      3  C   UNL     1      46.322  12.613  16.633  0.00  0.00    +0.018 C 
ATOM      4  C   UNL     1      46.854  11.291  16.088  0.00  0.00    -0.020 C 
ATOM      5  C   UNL     1      47.936  11.537  15.045  0.00  0.00    +0.166 C 
ATOM      8  C   UNL     1      49.070  12.415  15.571  0.00  0.00    -0.037 C 
ATOM      9  C   UNL     1      50.045  11.575  16.396  0.00  0.00    +0.033 C 
ATOM     10  C   UNL     1      49.847  12.910  14.324  0.00  0.00    +0.014 C 
ATOM     11  C   UNL     1      46.903  14.711  17.819  0.00  0.00    +0.003 C 
ATOM     12  C   UNL     1      45.899  14.502  18.955  0.00  0.00    +0.050 C 
ATOM     13  C   UNL     1      45.335  15.839  19.355  0.00  0.00    -0.071 C 
ATOM     14  C   UNL     1      45.938  16.969  19.137  0.00  0.00    -0.056 C 
ATOM     15  C   UNL     1      47.267  17.095  18.435  0.00  0.00    +0.004 C 
ATOM     16  C   UNL     1      46.961  17.677  17.048  0.00  0.00    +0.007 C 
ATOM     17  C   UNL     1      48.182  18.081  19.147  0.00  0.00    +0.016 C 
ATOM     18  C   UNL     1      47.456  19.377  19.514  0.00  0.00    +0.004 C 
ATOM     19  C   UNL     1      46.240  19.077  20.392  0.00  0.00    -0.117 C 
ATOM     23  C   UNL     1      45.581  20.384  20.827  0.00  0.00    +0.008 C 
ATOM     24  C   UNL     1      44.309  20.112  21.623  0.00  0.00    +0.007 C 
ATOM     25  C   UNL     1      43.326  19.243  20.847  0.00  0.00    -0.059 C 
ATOM     26  C   UNL     1      42.156  18.876  21.772  0.00  0.00    +0.007 C 
ATOM     27  C   UNL     1      42.771  20.020  19.652  0.00  0.00    +0.008 C 
ATOM     28  C   UNL     1      43.993  17.953  20.369  0.00  0.00    +0.037 C 
ATOM     29  C   UNL     1      45.251  18.252  19.570  0.00  0.00    +0.033 C 
ATOM     30  C   UNL     1      47.945  15.732  18.254  0.00  0.00    -0.023 C 
ATOM     31  C   UNL     1      48.537  15.332  19.616  0.00  0.00    +0.022 C 
ATOM     32  C   UNL     1      49.092  15.841  17.255  0.00  0.00    +0.010 C 
ATOM     33  C   UNL     1      49.678  14.448  16.961  0.00  0.00    +0.013 C 
ATOM     34  C   UNL     1      48.563  13.627  16.316  0.00  0.00    -0.002 C 
ENDROOT
BRANCH  19  20
ATOM     20  C   UNL     1      46.681  18.310  21.611  0.00  0.00    +0.517 C 
ATOM     21  O   UNL     1      47.619  18.713  22.278  0.00  0.00    -0.678 OA
ATOM     22  O   UNL     1      46.102  17.287  21.929  0.00  0.00    -0.711 OA
ENDBRANCH  19  20
BRANCH   5   6
ATOM      6  O   UNL     1      48.480  10.278  14.624  0.00  0.00    -0.567 OA
ATOM      7  H   UNL     1      49.226  10.355  14.014  0.00  0.00    +0.371 HD
ENDBRANCH   5   6
TORSDOF 2
ENDMDL
MODEL 2
REMARK VINA RESULT:      -6.8      4.226      7.934
REMARK  Name = ZINC38140514
REMARK  9 active torsions:
REMARK  status: ('A' for Active; 'I' for Inactive)
REMARK    1  A    between atoms: C1_1  and  C2_2
REMARK    2  A    between atoms: C5_5  and  O3_37
REMARK    3  A    between atoms: C6_7  and  C29_35
REMARK    4  A    between atoms: C6_7  and  C30_36
REMARK    5  A    between atoms: C10_12  and  C28_34
REMARK    6  A    between atoms: C15_18  and  C27_33
REMARK    7  A    between atoms: C18_21  and  C26_30
REMARK    8  A    between atoms: C21_25  and  C24_28
REMARK    9  A    between atoms: C21_25  and  C25_29
REMARK                            x       y       z     vdW  Elec       q    Type
REMARK                         _______ _______ _______ _____ _____    ______ ____
ROOT
ATOM      1  C   UNL     1      44.664  21.201  21.027  0.00  0.00    +0.025 C 
ATOM      2  C   UNL     1      44.632  19.928  20.188  0.00  0.00    -0.034 C 
ATOM      3  C   UNL     1      43.766  20.207  18.944  0.00  0.00    +0.018 C 
ATOM      4  C   UNL     1      42.342  20.539  19.382  0.00  0.00    -0.020 C 
ATOM      5  C   UNL     1      41.715  19.355  20.107  0.00  0.00    +0.166 C 
ATOM      8  C   UNL     1      42.559  18.873  21.285  0.00  0.00    -0.037 C 
ATOM      9  C   UNL     1      42.311  19.761  22.505  0.00  0.00    +0.033 C 
ATOM     10  C   UNL     1      42.031  17.460  21.643  0.00  0.00    +0.014 C 
ATOM     11  C   UNL     1      46.032  19.547  19.704  0.00  0.00    +0.003 C 
ATOM     12  C   UNL     1      46.736  20.753  19.079  0.00  0.00    +0.050 C 
ATOM     13  C   UNL     1      48.084  20.316  18.568  0.00  0.00    -0.071 C 
ATOM     14  C   UNL     1      48.717  19.273  19.012  0.00  0.00    -0.056 C 
ATOM     15  C   UNL     1      48.181  18.349  20.076  0.00  0.00    +0.004 C 
ATOM     16  C   UNL     1      47.782  17.055  19.354  0.00  0.00    +0.007 C 
ATOM     17  C   UNL     1      49.256  17.986  21.092  0.00  0.00    +0.016 C 
ATOM     18  C   UNL     1      50.572  17.593  20.419  0.00  0.00    +0.004 C 
ATOM     19  C   UNL     1      51.073  18.728  19.524  0.00  0.00    -0.117 C 
ATOM     23  C   UNL     1      52.433  18.359  18.934  0.00  0.00    +0.008 C 
ATOM     24  C   UNL     1      52.910  19.431  17.959  0.00  0.00    +0.007 C 
ATOM     25  C   UNL     1      51.893  19.689  16.854  0.00  0.00    -0.059 C 
ATOM     26  C   UNL     1      52.367  20.889  16.020  0.00  0.00    +0.007 C 
ATOM     27  C   UNL     1      51.798  18.470  15.934  0.00  0.00    +0.008 C 
ATOM     28  C   UNL     1      50.518  20.014  17.438  0.00  0.00    +0.037 C 
ATOM     29  C   UNL     1      50.061  18.926  18.396  0.00  0.00    +0.033 C 
ATOM     30  C   UNL     1      46.939  18.930  20.760  0.00  0.00    -0.023 C 
ATOM     31  C   UNL     1      47.421  20.015  21.737  0.00  0.00    +0.022 C 
ATOM     32  C   UNL     1      46.225  17.851  21.567  0.00  0.00    +0.010 C 
ATOM     33  C   UNL     1      44.901  18.395  22.133  0.00  0.00    +0.013 C 
ATOM     34  C   UNL     1      44.022  18.750  20.934  0.00  0.00    -0.002 C 
ENDROOT
BRANCH  19  20
ATOM     20  C   UNL     1      51.207  19.986  20.340  0.00  0.00    +0.517 C 
ATOM     21  O   UNL     1      51.843  19.973  21.379  0.00  0.00    -0.678 OA
ATOM     22  O   UNL     1      50.679  21.017  19.961  0.00  0.00    -0.711 OA
ENDBRANCH  19  20
BRANCH   5   6
ATOM      6  O   UNL     1      40.417  19.732  20.587  0.00  0.00    -0.567 OA
ATOM      7  H   UNL     1      40.061  19.143  21.266  0.00  0.00    +0.371 HD
ENDBRANCH   5   6
TORSDOF 2
ENDMDL
MODEL 3
REMARK VINA RESULT:      -6.7      3.928      8.037
REMARK  Name = ZINC38140514
REMARK  9 active torsions:
REMARK  status: ('A' for Active; 'I' for Inactive)
REMARK    1  A    between atoms: C1_1  and  C2_2
REMARK    2  A    between atoms: C5_5  and  O3_37
REMARK    3  A    between atoms: C6_7  and  C29_35
REMARK    4  A    between atoms: C6_7  and  C30_36
REMARK    5  A    between atoms: C10_12  and  C28_34
REMARK    6  A    between atoms: C15_18  and  C27_33
REMARK    7  A    between atoms: C18_21  and  C26_30
REMARK    8  A    between atoms: C21_25  and  C24_28
REMARK    9  A    between atoms: C21_25  and  C25_29
REMARK                            x       y       z     vdW  Elec       q    Type
REMARK                         _______ _______ _______ _____ _____    ______ ____
ROOT
ATOM      1  C   UNL     1      43.932  20.967  21.308  0.00  0.00    +0.025 C 
ATOM      2  C   UNL     1      44.126  20.787  19.806  0.00  0.00    -0.034 C 
ATOM      3  C   UNL     1      43.847  22.144  19.130  0.00  0.00    +0.018 C 
ATOM      4  C   UNL     1      42.400  22.551  19.390  0.00  0.00    -0.020 C 
ATOM      5  C   UNL     1      41.440  21.541  18.775  0.00  0.00    +0.166 C 
ATOM      8  C   UNL     1      41.707  20.114  19.248  0.00  0.00    -0.037 C 
ATOM      9  C   UNL     1      41.074  19.890  20.622  0.00  0.00    +0.033 C 
ATOM     10  C   UNL     1      40.963  19.185  18.255  0.00  0.00    +0.014 C 
ATOM     11  C   UNL     1      45.566  20.391  19.476  0.00  0.00    +0.003 C 
ATOM     12  C   UNL     1      46.559  21.317  20.181  0.00  0.00    +0.050 C 
ATOM     13  C   UNL     1      47.956  20.923  19.782  0.00  0.00    -0.071 C 
ATOM     14  C   UNL     1      48.273  19.743  19.341  0.00  0.00    -0.056 C 
ATOM     15  C   UNL     1      47.285  18.621  19.148  0.00  0.00    +0.004 C 
ATOM     16  C   UNL     1      47.095  18.478  17.631  0.00  0.00    +0.007 C 
ATOM     17  C   UNL     1      47.837  17.297  19.659  0.00  0.00    +0.016 C 
ATOM     18  C   UNL     1      49.274  17.056  19.193  0.00  0.00    +0.004 C 
ATOM     19  C   UNL     1      50.181  18.202  19.646  0.00  0.00    -0.117 C 
ATOM     23  C   UNL     1      51.627  17.901  19.256  0.00  0.00    +0.008 C 
ATOM     24  C   UNL     1      52.538  19.073  19.607  0.00  0.00    +0.007 C 
ATOM     25  C   UNL     1      52.065  20.374  18.970  0.00  0.00    -0.059 C 
ATOM     26  C   UNL     1      52.929  21.526  19.506  0.00  0.00    +0.007 C 
ATOM     27  C   UNL     1      52.238  20.307  17.452  0.00  0.00    +0.008 C 
ATOM     28  C   UNL     1      50.604  20.656  19.320  0.00  0.00    +0.037 C 
ATOM     29  C   UNL     1      49.716  19.480  18.950  0.00  0.00    +0.033 C 
ATOM     30  C   UNL     1      45.927  18.944  19.782  0.00  0.00    -0.023 C 
ATOM     31  C   UNL     1      46.074  18.748  21.300  0.00  0.00    +0.022 C 
ATOM     32  C   UNL     1      44.865  17.970  19.282  0.00  0.00    +0.010 C 
ATOM     33  C   UNL     1      43.476  18.382  19.802  0.00  0.00    +0.013 C 
ATOM     34  C   UNL     1      43.174  19.759  19.212  0.00  0.00    -0.002 C 
ENDROOT
BRANCH  19  20
ATOM     20  C   UNL     1      50.088  18.352  21.141  0.00  0.00    +0.517 C 
ATOM     21  O   UNL     1      49.886  19.449  21.632  0.00  0.00    -0.678 OA
ATOM     22  O   UNL     1      50.215  17.376  21.861  0.00  0.00    -0.711 OA
ENDBRANCH  19  20
BRANCH   5   6
ATOM      6  O   UNL     1      40.095  21.902  19.119  0.00  0.00    -0.567 OA
ATOM      7  H   UNL     1      39.434  21.625  18.469  0.00  0.00    +0.371 HD
ENDBRANCH   5   6
TORSDOF 2
ENDMDL
MODEL 4
REMARK VINA RESULT:      -6.5      2.082      7.944
REMARK  Name = ZINC38140514
REMARK  9 active torsions:
REMARK  status: ('A' for Active; 'I' for Inactive)
REMARK    1  A    between atoms: C1_1  and  C2_2
REMARK    2  A    between atoms: C5_5  and  O3_37
REMARK    3  A    between atoms: C6_7  and  C29_35
REMARK    4  A    between atoms: C6_7  and  C30_36
REMARK    5  A    between atoms: C10_12  and  C28_34
REMARK    6  A    between atoms: C15_18  and  C27_33
REMARK    7  A    between atoms: C18_21  and  C26_30
REMARK    8  A    between atoms: C21_25  and  C24_28
REMARK    9  A    between atoms: C21_25  and  C25_29
REMARK                            x       y       z     vdW  Elec       q    Type
REMARK                         _______ _______ _______ _____ _____    ______ ____
ROOT
ATOM      1  C   UNL     1      46.781  18.929  20.106  0.00  0.00    +0.025 C 
ATOM      2  C   UNL     1      45.711  18.088  19.420  0.00  0.00    -0.034 C 
ATOM      3  C   UNL     1      45.151  18.909  18.242  0.00  0.00    +0.018 C 
ATOM      4  C   UNL     1      44.502  20.183  18.776  0.00  0.00    -0.020 C 
ATOM      5  C   UNL     1      43.326  19.846  19.684  0.00  0.00    +0.166 C 
ATOM      8  C   UNL     1      43.714  18.903  20.821  0.00  0.00    -0.037 C 
ATOM      9  C   UNL     1      44.372  19.690  21.954  0.00  0.00    +0.033 C 
ATOM     10  C   UNL     1      42.385  18.335  21.382  0.00  0.00    +0.014 C 
ATOM     11  C   UNL     1      46.301  16.798  18.848  0.00  0.00    +0.003 C 
ATOM     12  C   UNL     1      47.559  17.095  18.029  0.00  0.00    +0.050 C 
ATOM     13  C   UNL     1      48.070  15.805  17.441  0.00  0.00    -0.071 C 
ATOM     14  C   UNL     1      47.801  14.634  17.935  0.00  0.00    -0.056 C 
ATOM     15  C   UNL     1      46.926  14.407  19.141  0.00  0.00    +0.004 C 
ATOM     16  C   UNL     1      45.611  13.822  18.607  0.00  0.00    +0.007 C 
ATOM     17  C   UNL     1      47.530  13.374  20.082  0.00  0.00    +0.016 C 
ATOM     18  C   UNL     1      48.029  12.137  19.333  0.00  0.00    +0.004 C 
ATOM     19  C   UNL     1      49.059  12.534  18.274  0.00  0.00    -0.117 C 
ATOM     23  C   UNL     1      49.616  11.282  17.600  0.00  0.00    +0.008 C 
ATOM     24  C   UNL     1      50.573  11.653  16.472  0.00  0.00    +0.007 C 
ATOM     25  C   UNL     1      49.917  12.572  15.448  0.00  0.00    -0.059 C 
ATOM     26  C   UNL     1      50.986  13.033  14.445  0.00  0.00    +0.007 C 
ATOM     27  C   UNL     1      48.832  11.813  14.682  0.00  0.00    +0.008 C 
ATOM     28  C   UNL     1      49.317  13.805  16.123  0.00  0.00    +0.037 C 
ATOM     29  C   UNL     1      48.360  13.408  17.234  0.00  0.00    +0.033 C 
ATOM     30  C   UNL     1      46.615  15.717  19.873  0.00  0.00    -0.023 C 
ATOM     31  C   UNL     1      47.870  16.101  20.674  0.00  0.00    +0.022 C 
ATOM     32  C   UNL     1      45.470  15.514  20.859  0.00  0.00    +0.010 C 
ATOM     33  C   UNL     1      45.061  16.858  21.486  0.00  0.00    +0.013 C 
ATOM     34  C   UNL     1      44.555  17.741  20.347  0.00  0.00    -0.002 C 
ENDROOT
BRANCH  19  20
ATOM     20  C   UNL     1      50.183  13.290  18.930  0.00  0.00    +0.517 C 
ATOM     21  O   UNL     1      50.545  14.361  18.473  0.00  0.00    -0.678 OA
ATOM     22  O   UNL     1      50.732  12.832  19.916  0.00  0.00    -0.711 OA
ENDBRANCH  19  20
BRANCH   5   6
ATOM      6  O   UNL     1      42.800  21.057  20.242  0.00  0.00    -0.567 OA
ATOM      7  H   UNL     1      43.434  21.551  20.781  0.00  0.00    +0.371 HD
ENDBRANCH   5   6
TORSDOF 2
ENDMDL
MODEL 5
REMARK VINA RESULT:      -6.3      1.246      1.574
REMARK  Name = ZINC38140514
REMARK  9 active torsions:
REMARK  status: ('A' for Active; 'I' for Inactive)
REMARK    1  A    between atoms: C1_1  and  C2_2
REMARK    2  A    between atoms: C5_5  and  O3_37
REMARK    3  A    between atoms: C6_7  and  C29_35
REMARK    4  A    between atoms: C6_7  and  C30_36
REMARK    5  A    between atoms: C10_12  and  C28_34
REMARK    6  A    between atoms: C15_18  and  C27_33
REMARK    7  A    between atoms: C18_21  and  C26_30
REMARK    8  A    between atoms: C21_25  and  C24_28
REMARK    9  A    between atoms: C21_25  and  C25_29
REMARK                            x       y       z     vdW  Elec       q    Type
REMARK                         _______ _______ _______ _____ _____    ______ ____
ROOT
ATOM      1  C   UNL     1      48.626  12.292  17.512  0.00  0.00    +0.025 C 
ATOM      2  C   UNL     1      48.696  13.440  16.511  0.00  0.00    -0.034 C 
ATOM      3  C   UNL     1      47.790  13.078  15.317  0.00  0.00    +0.018 C 
ATOM      4  C   UNL     1      48.317  11.814  14.646  0.00  0.00    -0.020 C 
ATOM      5  C   UNL     1      49.716  12.044  14.091  0.00  0.00    +0.166 C 
ATOM      8  C   UNL     1      50.691  12.557  15.149  0.00  0.00    -0.037 C 
ATOM      9  C   UNL     1      51.210  11.393  15.992  0.00  0.00    +0.033 C 
ATOM     10  C   UNL     1      51.907  13.128  14.374  0.00  0.00    +0.014 C 
ATOM     11  C   UNL     1      48.166  14.739  17.119  0.00  0.00    +0.003 C 
ATOM     12  C   UNL     1      46.812  14.510  17.794  0.00  0.00    +0.050 C 
ATOM     13  C   UNL     1      46.307  15.825  18.327  0.00  0.00    -0.071 C 
ATOM     14  C   UNL     1      47.079  16.833  18.603  0.00  0.00    -0.056 C 
ATOM     15  C   UNL     1      48.574  16.831  18.405  0.00  0.00    +0.004 C 
ATOM     16  C   UNL     1      48.842  17.728  17.188  0.00  0.00    +0.007 C 
ATOM     17  C   UNL     1      49.294  17.454  19.593  0.00  0.00    +0.016 C 
ATOM     18  C   UNL     1      48.646  18.768  20.033  0.00  0.00    +0.004 C 
ATOM     19  C   UNL     1      47.173  18.544  20.384  0.00  0.00    -0.117 C 
ATOM     23  C   UNL     1      46.564  19.842  20.911  0.00  0.00    +0.008 C 
ATOM     24  C   UNL     1      45.072  19.673  21.175  0.00  0.00    +0.007 C 
ATOM     25  C   UNL     1      44.325  19.189  19.937  0.00  0.00    -0.059 C 
ATOM     26  C   UNL     1      42.871  18.883  20.328  0.00  0.00    +0.007 C 
ATOM     27  C   UNL     1      44.318  20.284  18.869  0.00  0.00    +0.008 C 
ATOM     28  C   UNL     1      44.959  17.915  19.378  0.00  0.00    +0.037 C 
ATOM     29  C   UNL     1      46.442  18.113  19.113  0.00  0.00    +0.033 C 
ATOM     30  C   UNL     1      49.105  15.426  18.102  0.00  0.00    -0.023 C 
ATOM     31  C   UNL     1      49.133  14.652  19.430  0.00  0.00    +0.022 C 
ATOM     32  C   UNL     1      50.533  15.503  17.571  0.00  0.00    +0.010 C 
ATOM     33  C   UNL     1      51.014  14.110  17.129  0.00  0.00    +0.013 C 
ATOM     34  C   UNL     1      50.104  13.671  15.982  0.00  0.00    -0.002 C 
ENDROOT
BRANCH  19  20
ATOM     20  C   UNL     1      47.067  17.477  21.441  0.00  0.00    +0.517 C 
ATOM     21  O   UNL     1      46.300  16.542  21.289  0.00  0.00    -0.678 OA
ATOM     22  O   UNL     1      47.749  17.549  22.449  0.00  0.00    -0.711 OA
ENDBRANCH  19  20
BRANCH   5   6
ATOM      6  O   UNL     1      50.218  10.813  13.553  0.00  0.00    -0.567 OA
ATOM      7  H   UNL     1      50.252  10.789  12.587  0.00  0.00    +0.371 HD
ENDBRANCH   5   6
TORSDOF 2
ENDMDL
MODEL 6
REMARK VINA RESULT:      -6.3      2.338      7.898
REMARK  Name = ZINC38140514
REMARK  9 active torsions:
REMARK  status: ('A' for Active; 'I' for Inactive)
REMARK    1  A    between atoms: C1_1  and  C2_2
REMARK    2  A    between atoms: C5_5  and  O3_37
REMARK    3  A    between atoms: C6_7  and  C29_35
REMARK    4  A    between atoms: C6_7  and  C30_36
REMARK    5  A    between atoms: C10_12  and  C28_34
REMARK    6  A    between atoms: C15_18  and  C27_33
REMARK    7  A    between atoms: C18_21  and  C26_30
REMARK    8  A    between atoms: C21_25  and  C24_28
REMARK    9  A    between atoms: C21_25  and  C25_29
REMARK                            x       y       z     vdW  Elec       q    Type
REMARK                         _______ _______ _______ _____ _____    ______ ____
ROOT
ATOM      1  C   UNL     1      47.952  20.146  19.206  0.00  0.00    +0.025 C 
ATOM      2  C   UNL     1      46.581  19.521  19.445  0.00  0.00    -0.034 C 
ATOM      3  C   UNL     1      45.589  20.173  18.463  0.00  0.00    +0.018 C 
ATOM      4  C   UNL     1      45.499  21.668  18.752  0.00  0.00    -0.020 C 
ATOM      5  C   UNL     1      44.963  21.912  20.156  0.00  0.00    +0.166 C 
ATOM      8  C   UNL     1      45.775  21.189  21.229  0.00  0.00    -0.037 C 
ATOM      9  C   UNL     1      47.034  21.989  21.563  0.00  0.00    +0.033 C 
ATOM     10  C   UNL     1      44.895  21.184  22.505  0.00  0.00    +0.014 C 
ATOM     11  C   UNL     1      46.600  18.018  19.159  0.00  0.00    +0.003 C 
ATOM     12  C   UNL     1      47.247  17.733  17.802  0.00  0.00    +0.050 C 
ATOM     13  C   UNL     1      47.190  16.250  17.541  0.00  0.00    -0.071 C 
ATOM     14  C   UNL     1      47.079  15.358  18.479  0.00  0.00    -0.056 C 
ATOM     15  C   UNL     1      46.967  15.686  19.946  0.00  0.00    +0.004 C 
ATOM     16  C   UNL     1      45.509  15.406  20.334  0.00  0.00    +0.007 C 
ATOM     17  C   UNL     1      47.843  14.769  20.790  0.00  0.00    +0.016 C 
ATOM     18  C   UNL     1      47.696  13.302  20.385  0.00  0.00    +0.004 C 
ATOM     19  C   UNL     1      48.038  13.120  18.904  0.00  0.00    -0.117 C 
ATOM     23  C   UNL     1      47.978  11.639  18.538  0.00  0.00    +0.008 C 
ATOM     24  C   UNL     1      48.218  11.439  17.045  0.00  0.00    +0.007 C 
ATOM     25  C   UNL     1      47.240  12.246  16.198  0.00  0.00    -0.059 C 
ATOM     26  C   UNL     1      47.653  12.126  14.723  0.00  0.00    +0.007 C 
ATOM     27  C   UNL     1      45.826  11.683  16.351  0.00  0.00    +0.008 C 
ATOM     28  C   UNL     1      47.262  13.723  16.592  0.00  0.00    +0.037 C 
ATOM     29  C   UNL     1      47.010  13.895  18.081  0.00  0.00    +0.033 C 
ATOM     30  C   UNL     1      47.271  17.162  20.224  0.00  0.00    -0.023 C 
ATOM     31  C   UNL     1      48.798  17.335  20.152  0.00  0.00    +0.022 C 
ATOM     32  C   UNL     1      46.820  17.540  21.631  0.00  0.00    +0.010 C 
ATOM     33  C   UNL     1      46.990  19.053  21.858  0.00  0.00    +0.013 C 
ATOM     34  C   UNL     1      46.070  19.755  20.860  0.00  0.00    -0.002 C 
ENDROOT
BRANCH  19  20
ATOM     20  C   UNL     1      49.425  13.644  18.644  0.00  0.00    +0.517 C 
ATOM     21  O   UNL     1      49.618  14.433  17.735  0.00  0.00    -0.678 OA
ATOM     22  O   UNL     1      50.355  13.279  19.342  0.00  0.00    -0.711 OA
ENDBRANCH  19  20
BRANCH   5   6
ATOM      6  O   UNL     1      44.982  23.320  20.429  0.00  0.00    -0.567 OA
ATOM      7  H   UNL     1      45.864  23.716  20.401  0.00  0.00    +0.371 HD
ENDBRANCH   5   6
TORSDOF 2
ENDMDL
MODEL 7
REMARK VINA RESULT:      -5.9      1.837      8.140
REMARK  Name = ZINC38140514
REMARK  9 active torsions:
REMARK  status: ('A' for Active; 'I' for Inactive)
REMARK    1  A    between atoms: C1_1  and  C2_2
REMARK    2  A    between atoms: C5_5  and  O3_37
REMARK    3  A    between atoms: C6_7  and  C29_35
REMARK    4  A    between atoms: C6_7  and  C30_36
REMARK    5  A    between atoms: C10_12  and  C28_34
REMARK    6  A    between atoms: C15_18  and  C27_33
REMARK    7  A    between atoms: C18_21  and  C26_30
REMARK    8  A    between atoms: C21_25  and  C24_28
REMARK    9  A    between atoms: C21_25  and  C25_29
REMARK                            x       y       z     vdW  Elec       q    Type
REMARK                         _______ _______ _______ _____ _____    ______ ____
ROOT
ATOM      1  C   UNL     1      48.425  17.922  21.028  0.00  0.00    +0.025 C 
ATOM      2  C   UNL     1      47.897  18.306  19.649  0.00  0.00    -0.034 C 
ATOM      3  C   UNL     1      48.748  19.482  19.131  0.00  0.00    +0.018 C 
ATOM      4  C   UNL     1      48.584  20.677  20.065  0.00  0.00    -0.020 C 
ATOM      5  C   UNL     1      47.136  21.148  20.085  0.00  0.00    +0.166 C 
ATOM      8  C   UNL     1      46.159  20.029  20.440  0.00  0.00    -0.037 C 
ATOM      9  C   UNL     1      46.121  19.827  21.955  0.00  0.00    +0.033 C 
ATOM     10  C   UNL     1      44.755  20.534  20.020  0.00  0.00    +0.014 C 
ATOM     11  C   UNL     1      48.046  17.152  18.657  0.00  0.00    +0.003 C 
ATOM     12  C   UNL     1      49.462  16.576  18.704  0.00  0.00    +0.050 C 
ATOM     13  C   UNL     1      49.576  15.483  17.673  0.00  0.00    -0.071 C 
ATOM     14  C   UNL     1      48.556  14.829  17.204  0.00  0.00    -0.056 C 
ATOM     15  C   UNL     1      47.127  15.091  17.606  0.00  0.00    +0.004 C 
ATOM     16  C   UNL     1      46.469  15.790  16.409  0.00  0.00    +0.007 C 
ATOM     17  C   UNL     1      46.368  13.793  17.843  0.00  0.00    +0.016 C 
ATOM     18  C   UNL     1      46.608  12.775  16.727  0.00  0.00    +0.004 C 
ATOM     19  C   UNL     1      48.102  12.479  16.587  0.00  0.00    -0.117 C 
ATOM     23  C   UNL     1      48.318  11.394  15.534  0.00  0.00    +0.008 C 
ATOM     24  C   UNL     1      49.806  11.149  15.303  0.00  0.00    +0.007 C 
ATOM     25  C   UNL     1      50.540  12.429  14.920  0.00  0.00    -0.059 C 
ATOM     26  C   UNL     1      52.048  12.135  14.872  0.00  0.00    +0.007 C 
ATOM     27  C   UNL     1      50.095  12.892  13.531  0.00  0.00    +0.008 C 
ATOM     28  C   UNL     1      50.291  13.534  15.946  0.00  0.00    +0.037 C 
ATOM     29  C   UNL     1      48.802  13.765  16.149  0.00  0.00    +0.033 C 
ATOM     30  C   UNL     1      47.040  16.020  18.822  0.00  0.00    -0.023 C 
ATOM     31  C   UNL     1      47.390  15.182  20.063  0.00  0.00    +0.022 C 
ATOM     32  C   UNL     1      45.616  16.540  18.991  0.00  0.00    +0.010 C 
ATOM     33  C   UNL     1      45.559  17.585  20.119  0.00  0.00    +0.013 C 
ATOM     34  C   UNL     1      46.443  18.753  19.684  0.00  0.00    -0.002 C 
ENDROOT
BRANCH  19  20
ATOM     20  C   UNL     1      48.644  12.007  17.910  0.00  0.00    +0.517 C 
ATOM     21  O   UNL     1      49.637  12.532  18.384  0.00  0.00    -0.678 OA
ATOM     22  O   UNL     1      48.091  11.100  18.506  0.00  0.00    -0.711 OA
ENDBRANCH  19  20
BRANCH   5   6
ATOM      6  O   UNL     1      46.999  22.207  21.043  0.00  0.00    -0.567 OA
ATOM      7  H   UNL     1      46.098  22.547  21.128  0.00  0.00    +0.371 HD
ENDBRANCH   5   6
TORSDOF 2
ENDMDL
MODEL 8
REMARK VINA RESULT:      -5.9      1.640      3.049
REMARK  Name = ZINC38140514
REMARK  9 active torsions:
REMARK  status: ('A' for Active; 'I' for Inactive)
REMARK    1  A    between atoms: C1_1  and  C2_2
REMARK    2  A    between atoms: C5_5  and  O3_37
REMARK    3  A    between atoms: C6_7  and  C29_35
REMARK    4  A    between atoms: C6_7  and  C30_36
REMARK    5  A    between atoms: C10_12  and  C28_34
REMARK    6  A    between atoms: C15_18  and  C27_33
REMARK    7  A    between atoms: C18_21  and  C26_30
REMARK    8  A    between atoms: C21_25  and  C24_28
REMARK    9  A    between atoms: C21_25  and  C25_29
REMARK                            x       y       z     vdW  Elec       q    Type
REMARK                         _______ _______ _______ _____ _____    ______ ____
ROOT
ATOM      1  C   UNL     1      46.689  13.487  16.937  0.00  0.00    +0.025 C 
ATOM      2  C   UNL     1      47.943  14.032  17.613  0.00  0.00    -0.034 C 
ATOM      3  C   UNL     1      48.936  14.436  16.505  0.00  0.00    +0.018 C 
ATOM      4  C   UNL     1      49.317  13.202  15.692  0.00  0.00    -0.020 C 
ATOM      5  C   UNL     1      50.021  12.177  16.571  0.00  0.00    +0.166 C 
ATOM      8  C   UNL     1      49.202  11.797  17.803  0.00  0.00    -0.037 C 
ATOM      9  C   UNL     1      48.143  10.759  17.429  0.00  0.00    +0.033 C 
ATOM     10  C   UNL     1      50.187  11.102  18.778  0.00  0.00    +0.014 C 
ATOM     11  C   UNL     1      47.631  15.282  18.436  0.00  0.00    +0.003 C 
ATOM     12  C   UNL     1      46.815  16.283  17.614  0.00  0.00    +0.050 C 
ATOM     13  C   UNL     1      46.581  17.517  18.445  0.00  0.00    -0.071 C 
ATOM     14  C   UNL     1      46.623  17.527  19.744  0.00  0.00    -0.056 C 
ATOM     15  C   UNL     1      46.933  16.318  20.589  0.00  0.00    +0.004 C 
ATOM     16  C   UNL     1      48.349  16.536  21.139  0.00  0.00    +0.007 C 
ATOM     17  C   UNL     1      45.994  16.218  21.784  0.00  0.00    +0.016 C 
ATOM     18  C   UNL     1      45.838  17.557  22.505  0.00  0.00    +0.004 C 
ATOM     19  C   UNL     1      45.328  18.628  21.539  0.00  0.00    -0.117 C 
ATOM     23  C   UNL     1      45.088  19.934  22.293  0.00  0.00    +0.008 C 
ATOM     24  C   UNL     1      44.673  21.046  21.335  0.00  0.00    +0.007 C 
ATOM     25  C   UNL     1      45.691  21.245  20.219  0.00  0.00    -0.059 C 
ATOM     26  C   UNL     1      45.123  22.255  19.210  0.00  0.00    +0.007 C 
ATOM     27  C   UNL     1      46.991  21.814  20.791  0.00  0.00    +0.008 C 
ATOM     28  C   UNL     1      45.970  19.931  19.489  0.00  0.00    +0.037 C 
ATOM     29  C   UNL     1      46.392  18.844  20.464  0.00  0.00    +0.033 C 
ATOM     30  C   UNL     1      46.924  15.029  19.760  0.00  0.00    -0.023 C 
ATOM     31  C   UNL     1      45.453  14.658  19.509  0.00  0.00    +0.022 C 
ATOM     32  C   UNL     1      47.569  13.891  20.545  0.00  0.00    +0.010 C 
ATOM     33  C   UNL     1      47.694  12.637  19.662  0.00  0.00    +0.013 C 
ATOM     34  C   UNL     1      48.622  13.002  18.504  0.00  0.00    -0.002 C 
ENDROOT
BRANCH  19  20
ATOM     20  C   UNL     1      44.037  18.165  20.917  0.00  0.00    +0.517 C 
ATOM     21  O   UNL     1      43.119  17.791  21.626  0.00  0.00    -0.678 OA
ATOM     22  O   UNL     1      43.910  18.164  19.705  0.00  0.00    -0.711 OA
ENDBRANCH  19  20
BRANCH   5   6
ATOM      6  O   UNL     1      50.280  10.995  15.801  0.00  0.00    -0.567 OA
ATOM      7  H   UNL     1      51.180  10.654  15.892  0.00  0.00    +0.371 HD
ENDBRANCH   5   6
TORSDOF 2
ENDMDL
MODEL 9
REMARK VINA RESULT:      -5.8      2.499      8.052
REMARK  Name = ZINC38140514
REMARK  9 active torsions:
REMARK  status: ('A' for Active; 'I' for Inactive)
REMARK    1  A    between atoms: C1_1  and  C2_2
REMARK    2  A    between atoms: C5_5  and  O3_37
REMARK    3  A    between atoms: C6_7  and  C29_35
REMARK    4  A    between atoms: C6_7  and  C30_36
REMARK    5  A    between atoms: C10_12  and  C28_34
REMARK    6  A    between atoms: C15_18  and  C27_33
REMARK    7  A    between atoms: C18_21  and  C26_30
REMARK    8  A    between atoms: C21_25  and  C24_28
REMARK    9  A    between atoms: C21_25  and  C25_29
REMARK                            x       y       z     vdW  Elec       q    Type
REMARK                         _______ _______ _______ _____ _____    ______ ____
ROOT
ATOM      1  C   UNL     1      47.115  20.396  18.560  0.00  0.00    +0.025 C 
ATOM      2  C   UNL     1      46.398  19.213  19.201  0.00  0.00    -0.034 C 
ATOM      3  C   UNL     1      45.040  19.046  18.493  0.00  0.00    +0.018 C 
ATOM      4  C   UNL     1      44.199  20.301  18.708  0.00  0.00    -0.020 C 
ATOM      5  C   UNL     1      43.908  20.503  20.189  0.00  0.00    +0.166 C 
ATOM      8  C   UNL     1      45.177  20.535  21.039  0.00  0.00    -0.037 C 
ATOM      9  C   UNL     1      45.821  21.920  20.968  0.00  0.00    +0.033 C 
ATOM     10  C   UNL     1      44.719  20.326  22.505  0.00  0.00    +0.014 C 
ATOM     11  C   UNL     1      47.186  17.916  19.007  0.00  0.00    +0.003 C 
ATOM     12  C   UNL     1      47.599  17.746  17.544  0.00  0.00    +0.050 C 
ATOM     13  C   UNL     1      48.320  16.432  17.393  0.00  0.00    -0.071 C 
ATOM     14  C   UNL     1      48.908  15.818  18.376  0.00  0.00    -0.056 C 
ATOM     15  C   UNL     1      48.927  16.322  19.796  0.00  0.00    +0.004 C 
ATOM     16  C   UNL     1      47.978  15.410  20.584  0.00  0.00    +0.007 C 
ATOM     17  C   UNL     1      50.309  16.181  20.419  0.00  0.00    +0.016 C 
ATOM     18  C   UNL     1      50.921  14.804  20.154  0.00  0.00    +0.004 C 
ATOM     19  C   UNL     1      51.004  14.538  18.650  0.00  0.00    -0.117 C 
ATOM     23  C   UNL     1      51.701  13.202  18.399  0.00  0.00    +0.008 C 
ATOM     24  C   UNL     1      51.710  12.866  16.912  0.00  0.00    +0.007 C 
ATOM     25  C   UNL     1      50.306  12.862  16.320  0.00  0.00    -0.059 C 
ATOM     26  C   UNL     1      50.414  12.685  14.798  0.00  0.00    +0.007 C 
ATOM     27  C   UNL     1      49.501  11.691  16.887  0.00  0.00    +0.008 C 
ATOM     28  C   UNL     1      49.586  14.180  16.608  0.00  0.00    +0.037 C 
ATOM     29  C   UNL     1      49.581  14.486  18.096  0.00  0.00    +0.033 C 
ATOM     30  C   UNL     1      48.413  17.763  19.895  0.00  0.00    -0.023 C 
ATOM     31  C   UNL     1      49.540  18.685  19.398  0.00  0.00    +0.022 C 
ATOM     32  C   UNL     1      48.118  18.121  21.348  0.00  0.00    +0.010 C 
ATOM     33  C   UNL     1      47.465  19.512  21.432  0.00  0.00    +0.013 C 
ATOM     34  C   UNL     1      46.135  19.422  20.685  0.00  0.00    -0.002 C 
ENDROOT
BRANCH  19  20
ATOM     20  C   UNL     1      51.787  15.642  17.990  0.00  0.00    +0.517 C 
ATOM     21  O   UNL     1      51.380  16.144  16.957  0.00  0.00    -0.678 OA
ATOM     22  O   UNL     1      52.829  16.032  18.489  0.00  0.00    -0.711 OA
ENDBRANCH  19  20
BRANCH   5   6
ATOM      6  O   UNL     1      43.200  21.738  20.365  0.00  0.00    -0.567 OA
ATOM      7  H   UNL     1      42.486  21.694  21.017  0.00  0.00    +0.371 HD
ENDBRANCH   5   6
TORSDOF 2
ENDMDL
