MODEL 1
REMARK VINA RESULT:      -5.8      0.000      0.000
REMARK  Name = ZINC95486250
REMARK  4 active torsions:
REMARK  status: ('A' for Active; 'I' for Inactive)
REMARK    1  A    between atoms: C1_1  and  C2_2
REMARK    2  A    between atoms: C6_6  and  C18_22
REMARK    3  A    between atoms: C6_6  and  C19_23
REMARK    4  A    between atoms: C10_11  and  C17_21
REMARK                            x       y       z     vdW  Elec       q    Type
REMARK                         _______ _______ _______ _____ _____    ______ ____
ROOT
ATOM      1  C   UNL     1      46.521  20.765  22.057  0.00  0.00    +0.010 C 
ATOM      2  C   UNL     1      45.505  20.103  21.105  0.00  0.00    -0.029 C 
ATOM      3  C   UNL     1      46.219  19.749  19.802  0.00  0.00    +0.028 C 
ATOM      4  C   UNL     1      46.668  21.016  19.075  0.00  0.00    -0.005 C 
ATOM      5  C   UNL     1      45.457  21.885  18.758  0.00  0.00    +0.011 C 
ATOM      6  C   UNL     1      44.705  22.272  20.030  0.00  0.00    -0.052 C 
ATOM      7  C   UNL     1      43.417  23.007  19.592  0.00  0.00    +0.011 C 
ATOM      8  C   UNL     1      45.510  23.298  20.829  0.00  0.00    +0.019 C 
ATOM      9  C   UNL     1      45.093  18.810  21.820  0.00  0.00    +0.000 C 
ATOM     10  C   UNL     1      46.193  17.770  21.640  0.00  0.00    +0.023 C 
ATOM     11  C   UNL     1      46.059  16.575  22.505  0.00  0.00    -0.006 C 
ATOM     12  C   UNL     1      46.299  15.319  21.801  0.00  0.00    +0.376 C 
ATOM     13  C   UNL     1      45.241  15.048  20.701  0.00  0.00    -0.012 C 
ATOM     14  C   UNL     1      45.169  16.191  19.698  0.00  0.00    +0.269 C 
ATOM     15  O   UNL     1      44.503  17.399  19.923  0.00  0.00    -0.418 OA
ATOM     16  O   UNL     1      47.217  14.569  22.043  0.00  0.00    -0.441 OA
ATOM     17  C   UNL     1      43.967  18.075  20.984  0.00  0.00    +0.179 C 
ATOM     18  C   UNL     1      43.290  17.018  21.916  0.00  0.00    -0.040 C 
ATOM     19  C   UNL     1      42.802  19.026  20.817  0.00  0.00    +0.045 C 
ATOM     20  C   UNL     1      43.219  20.298  20.095  0.00  0.00    +0.013 C 
ATOM     21  C   UNL     1      44.333  21.037  20.847  0.00  0.00    +0.018 C 
ENDROOT
TORSDOF 0
ENDMDL
MODEL 2
REMARK VINA RESULT:      -5.7      1.738      5.807
REMARK  Name = ZINC95486250
REMARK  4 active torsions:
REMARK  status: ('A' for Active; 'I' for Inactive)
REMARK    1  A    between atoms: C1_1  and  C2_2
REMARK    2  A    between atoms: C6_6  and  C18_22
REMARK    3  A    between atoms: C6_6  and  C19_23
REMARK    4  A    between atoms: C10_11  and  C17_21
REMARK                            x       y       z     vdW  Elec       q    Type
REMARK                         _______ _______ _______ _____ _____    ______ ____
ROOT
ATOM      1  C   UNL     1      45.837  16.077  18.872  0.00  0.00    +0.010 C 
ATOM      2  C   UNL     1      45.433  16.589  20.268  0.00  0.00    -0.029 C 
ATOM      3  C   UNL     1      46.680  17.127  20.968  0.00  0.00    +0.028 C 
ATOM      4  C   UNL     1      47.674  15.997  21.238  0.00  0.00    -0.005 C 
ATOM      5  C   UNL     1      47.023  14.940  22.123  0.00  0.00    +0.011 C 
ATOM      6  C   UNL     1      45.769  14.365  21.468  0.00  0.00    -0.052 C 
ATOM      7  C   UNL     1      45.100  13.433  22.505  0.00  0.00    +0.011 C 
ATOM      8  C   UNL     1      46.150  13.464  20.293  0.00  0.00    +0.019 C 
ATOM      9  C   UNL     1      44.474  17.753  19.989  0.00  0.00    +0.000 C 
ATOM     10  C   UNL     1      45.283  18.981  19.588  0.00  0.00    +0.023 C 
ATOM     11  C   UNL     1      44.480  20.091  19.022  0.00  0.00    -0.006 C 
ATOM     12  C   UNL     1      44.849  21.401  19.549  0.00  0.00    +0.376 C 
ATOM     13  C   UNL     1      44.563  21.528  21.067  0.00  0.00    -0.012 C 
ATOM     14  C   UNL     1      45.268  20.440  21.864  0.00  0.00    +0.269 C 
ATOM     15  O   UNL     1      44.813  19.122  21.975  0.00  0.00    -0.418 OA
ATOM     16  O   UNL     1      45.325  22.291  18.883  0.00  0.00    -0.441 OA
ATOM     17  C   UNL     1      43.902  18.312  21.356  0.00  0.00    +0.179 C 
ATOM     18  C   UNL     1      42.647  19.185  21.031  0.00  0.00    -0.040 C 
ATOM     19  C   UNL     1      43.220  17.176  22.086  0.00  0.00    +0.045 C 
ATOM     20  C   UNL     1      44.184  16.035  22.369  0.00  0.00    +0.013 C 
ATOM     21  C   UNL     1      44.793  15.474  21.078  0.00  0.00    +0.018 C 
ENDROOT
TORSDOF 0
ENDMDL
MODEL 3
REMARK VINA RESULT:      -5.5      2.421      5.017
REMARK  Name = ZINC95486250
REMARK  4 active torsions:
REMARK  status: ('A' for Active; 'I' for Inactive)
REMARK    1  A    between atoms: C1_1  and  C2_2
REMARK    2  A    between atoms: C6_6  and  C18_22
REMARK    3  A    between atoms: C6_6  and  C19_23
REMARK    4  A    between atoms: C10_11  and  C17_21
REMARK                            x       y       z     vdW  Elec       q    Type
REMARK                         _______ _______ _______ _____ _____    ______ ____
ROOT
ATOM      1  C   UNL     1      46.737  16.543  20.440  0.00  0.00    +0.010 C 
ATOM      2  C   UNL     1      46.547  17.846  19.638  0.00  0.00    -0.029 C 
ATOM      3  C   UNL     1      45.849  17.509  18.321  0.00  0.00    +0.028 C 
ATOM      4  C   UNL     1      46.748  16.639  17.444  0.00  0.00    -0.005 C 
ATOM      5  C   UNL     1      48.047  17.378  17.145  0.00  0.00    +0.011 C 
ATOM      6  C   UNL     1      48.789  17.737  18.430  0.00  0.00    -0.052 C 
ATOM      7  C   UNL     1      49.995  18.618  18.028  0.00  0.00    +0.011 C 
ATOM      8  C   UNL     1      49.392  16.482  19.062  0.00  0.00    +0.019 C 
ATOM      9  C   UNL     1      45.607  18.695  20.502  0.00  0.00    +0.000 C 
ATOM     10  C   UNL     1      44.180  18.186  20.334  0.00  0.00    +0.023 C 
ATOM     11  C   UNL     1      43.212  18.728  21.317  0.00  0.00    -0.006 C 
ATOM     12  C   UNL     1      41.946  19.140  20.717  0.00  0.00    +0.376 C 
ATOM     13  C   UNL     1      42.117  20.327  19.735  0.00  0.00    -0.012 C 
ATOM     14  C   UNL     1      43.123  20.007  18.638  0.00  0.00    +0.269 C 
ATOM     15  O   UNL     1      44.510  20.051  18.800  0.00  0.00    -0.418 OA
ATOM     16  O   UNL     1      40.880  18.620  20.955  0.00  0.00    -0.441 OA
ATOM     17  C   UNL     1      45.405  20.116  19.832  0.00  0.00    +0.179 C 
ATOM     18  C   UNL     1      44.805  21.075  20.910  0.00  0.00    -0.040 C 
ATOM     19  C   UNL     1      46.764  20.761  19.669  0.00  0.00    +0.045 C 
ATOM     20  C   UNL     1      47.683  19.916  18.800  0.00  0.00    +0.013 C 
ATOM     21  C   UNL     1      47.888  18.515  19.387  0.00  0.00    +0.018 C 
ENDROOT
TORSDOF 0
ENDMDL
MODEL 4
REMARK VINA RESULT:      -5.5      3.536      5.274
REMARK  Name = ZINC95486250
REMARK  4 active torsions:
REMARK  status: ('A' for Active; 'I' for Inactive)
REMARK    1  A    between atoms: C1_1  and  C2_2
REMARK    2  A    between atoms: C6_6  and  C18_22
REMARK    3  A    between atoms: C6_6  and  C19_23
REMARK    4  A    between atoms: C10_11  and  C17_21
REMARK                            x       y       z     vdW  Elec       q    Type
REMARK                         _______ _______ _______ _____ _____    ______ ____
ROOT
ATOM      1  C   UNL     1      48.605  20.807  19.588  0.00  0.00    +0.010 C 
ATOM      2  C   UNL     1      48.891  19.343  19.201  0.00  0.00    -0.029 C 
ATOM      3  C   UNL     1      49.333  18.586  20.453  0.00  0.00    +0.028 C 
ATOM      4  C   UNL     1      50.670  19.124  20.960  0.00  0.00    -0.005 C 
ATOM      5  C   UNL     1      51.733  18.963  19.879  0.00  0.00    +0.011 C 
ATOM      6  C   UNL     1      51.342  19.704  18.603  0.00  0.00    -0.052 C 
ATOM      7  C   UNL     1      52.394  19.346  17.528  0.00  0.00    +0.011 C 
ATOM      8  C   UNL     1      51.464  21.215  18.808  0.00  0.00    +0.019 C 
ATOM      9  C   UNL     1      47.535  18.796  18.738  0.00  0.00    +0.000 C 
ATOM     10  C   UNL     1      46.680  18.483  19.961  0.00  0.00    +0.023 C 
ATOM     11  C   UNL     1      45.253  18.213  19.662  0.00  0.00    -0.006 C 
ATOM     12  C   UNL     1      44.718  17.061  20.381  0.00  0.00    +0.376 C 
ATOM     13  C   UNL     1      45.398  15.734  19.957  0.00  0.00    -0.012 C 
ATOM     14  C   UNL     1      46.908  15.795  20.140  0.00  0.00    +0.269 C 
ATOM     15  O   UNL     1      47.786  16.429  19.256  0.00  0.00    -0.418 OA
ATOM     16  O   UNL     1      43.843  17.126  21.214  0.00  0.00    -0.441 OA
ATOM     17  C   UNL     1      47.709  17.312  18.215  0.00  0.00    +0.179 C 
ATOM     18  C   UNL     1      46.438  16.942  17.384  0.00  0.00    -0.040 C 
ATOM     19  C   UNL     1      48.730  17.318  17.098  0.00  0.00    +0.045 C 
ATOM     20  C   UNL     1      50.074  17.849  17.573  0.00  0.00    +0.013 C 
ATOM     21  C   UNL     1      49.957  19.277  18.120  0.00  0.00    +0.018 C 
ENDROOT
TORSDOF 0
ENDMDL
MODEL 5
REMARK VINA RESULT:      -5.5      3.740      5.791
REMARK  Name = ZINC95486250
REMARK  4 active torsions:
REMARK  status: ('A' for Active; 'I' for Inactive)
REMARK    1  A    between atoms: C1_1  and  C2_2
REMARK    2  A    between atoms: C6_6  and  C18_22
REMARK    3  A    between atoms: C6_6  and  C19_23
REMARK    4  A    between atoms: C10_11  and  C17_21
REMARK                            x       y       z     vdW  Elec       q    Type
REMARK                         _______ _______ _______ _____ _____    ______ ____
ROOT
ATOM      1  C   UNL     1      46.864  21.269  20.019  0.00  0.00    +0.010 C 
ATOM      2  C   UNL     1      47.427  19.846  19.836  0.00  0.00    -0.029 C 
ATOM      3  C   UNL     1      46.956  19.306  18.487  0.00  0.00    +0.028 C 
ATOM      4  C   UNL     1      45.438  19.130  18.480  0.00  0.00    -0.005 C 
ATOM      5  C   UNL     1      45.028  18.154  19.577  0.00  0.00    +0.011 C 
ATOM      6  C   UNL     1      45.473  18.648  20.952  0.00  0.00    -0.052 C 
ATOM      7  C   UNL     1      45.158  17.522  21.964  0.00  0.00    +0.011 C 
ATOM      8  C   UNL     1      44.621  19.841  21.388  0.00  0.00    +0.019 C 
ATOM      9  C   UNL     1      48.948  20.036  19.797  0.00  0.00    +0.000 C 
ATOM     10  C   UNL     1      49.351  20.553  18.421  0.00  0.00    +0.023 C 
ATOM     11  C   UNL     1      50.746  21.044  18.331  0.00  0.00    -0.006 C 
ATOM     12  C   UNL     1      51.444  20.590  17.132  0.00  0.00    +0.376 C 
ATOM     13  C   UNL     1      51.635  19.052  17.106  0.00  0.00    -0.012 C 
ATOM     14  C   UNL     1      50.307  18.320  17.233  0.00  0.00    +0.269 C 
ATOM     15  O   UNL     1      49.620  18.131  18.435  0.00  0.00    -0.418 OA
ATOM     16  O   UNL     1      51.833  21.325  16.253  0.00  0.00    -0.441 OA
ATOM     17  C   UNL     1      49.660  18.624  19.710  0.00  0.00    +0.179 C 
ATOM     18  C   UNL     1      51.164  18.819  20.088  0.00  0.00    -0.040 C 
ATOM     19  C   UNL     1      49.221  17.797  20.899  0.00  0.00    +0.045 C 
ATOM     20  C   UNL     1      47.713  17.604  20.919  0.00  0.00    +0.013 C 
ATOM     21  C   UNL     1      46.971  18.945  20.972  0.00  0.00    +0.018 C 
ENDROOT
TORSDOF 0
ENDMDL
MODEL 6
REMARK VINA RESULT:      -5.5      1.993      3.634
REMARK  Name = ZINC95486250
REMARK  4 active torsions:
REMARK  status: ('A' for Active; 'I' for Inactive)
REMARK    1  A    between atoms: C1_1  and  C2_2
REMARK    2  A    between atoms: C6_6  and  C18_22
REMARK    3  A    between atoms: C6_6  and  C19_23
REMARK    4  A    between atoms: C10_11  and  C17_21
REMARK                            x       y       z     vdW  Elec       q    Type
REMARK                         _______ _______ _______ _____ _____    ______ ____
ROOT
ATOM      1  C   UNL     1      43.902  20.026  18.539  0.00  0.00    +0.010 C 
ATOM      2  C   UNL     1      45.216  19.886  19.332  0.00  0.00    -0.029 C 
ATOM      3  C   UNL     1      44.916  19.168  20.647  0.00  0.00    +0.028 C 
ATOM      4  C   UNL     1      44.014  20.026  21.533  0.00  0.00    -0.005 C 
ATOM      5  C   UNL     1      44.702  21.353  21.836  0.00  0.00    +0.011 C 
ATOM      6  C   UNL     1      45.023  22.116  20.553  0.00  0.00    -0.052 C 
ATOM      7  C   UNL     1      45.856  23.354  20.956  0.00  0.00    +0.011 C 
ATOM      8  C   UNL     1      43.740  22.670  19.930  0.00  0.00    +0.019 C 
ATOM      9  C   UNL     1      46.098  18.986  18.458  0.00  0.00    +0.000 C 
ATOM     10  C   UNL     1      45.649  17.538  18.622  0.00  0.00    +0.023 C 
ATOM     11  C   UNL     1      46.224  16.598  17.631  0.00  0.00    -0.006 C 
ATOM     12  C   UNL     1      46.692  15.348  18.221  0.00  0.00    +0.376 C 
ATOM     13  C   UNL     1      47.876  15.562  19.198  0.00  0.00    -0.012 C 
ATOM     14  C   UNL     1      47.521  16.548  20.302  0.00  0.00    +0.269 C 
ATOM     15  O   UNL     1      47.507  17.937  20.147  0.00  0.00    -0.418 OA
ATOM     16  O   UNL     1      46.213  14.263  17.980  0.00  0.00    -0.441 OA
ATOM     17  C   UNL     1      47.530  18.839  19.120  0.00  0.00    +0.179 C 
ATOM     18  C   UNL     1      48.507  18.284  18.033  0.00  0.00    -0.040 C 
ATOM     19  C   UNL     1      48.120  20.222  19.286  0.00  0.00    +0.045 C 
ATOM     20  C   UNL     1      47.243  21.101  20.165  0.00  0.00    +0.013 C 
ATOM     21  C   UNL     1      45.831  21.252  19.586  0.00  0.00    +0.018 C 
ENDROOT
TORSDOF 0
ENDMDL
MODEL 7
REMARK VINA RESULT:      -5.4      3.573      5.186
REMARK  Name = ZINC95486250
REMARK  4 active torsions:
REMARK  status: ('A' for Active; 'I' for Inactive)
REMARK    1  A    between atoms: C1_1  and  C2_2
REMARK    2  A    between atoms: C6_6  and  C18_22
REMARK    3  A    between atoms: C6_6  and  C19_23
REMARK    4  A    between atoms: C10_11  and  C17_21
REMARK                            x       y       z     vdW  Elec       q    Type
REMARK                         _______ _______ _______ _____ _____    ______ ____
ROOT
ATOM      1  C   UNL     1      50.607  17.249  19.840  0.00  0.00    +0.010 C 
ATOM      2  C   UNL     1      49.642  18.287  19.233  0.00  0.00    -0.029 C 
ATOM      3  C   UNL     1      49.131  17.752  17.897  0.00  0.00    +0.028 C 
ATOM      4  C   UNL     1      50.274  17.645  16.888  0.00  0.00    -0.005 C 
ATOM      5  C   UNL     1      50.898  19.018  16.669  0.00  0.00    +0.011 C 
ATOM      6  C   UNL     1      51.430  19.600  17.977  0.00  0.00    -0.052 C 
ATOM      7  C   UNL     1      51.888  21.046  17.679  0.00  0.00    +0.011 C 
ATOM      8  C   UNL     1      52.691  18.853  18.415  0.00  0.00    +0.019 C 
ATOM      9  C   UNL     1      48.475  18.355  20.226  0.00  0.00    +0.000 C 
ATOM     10  C   UNL     1      47.572  17.145  20.017  0.00  0.00    +0.023 C 
ATOM     11  C   UNL     1      46.567  16.934  21.085  0.00  0.00    -0.006 C 
ATOM     12  C   UNL     1      45.237  16.612  20.575  0.00  0.00    +0.376 C 
ATOM     13  C   UNL     1      44.617  17.780  19.766  0.00  0.00    -0.012 C 
ATOM     14  C   UNL     1      45.518  18.205  18.614  0.00  0.00    +0.269 C 
ATOM     15  O   UNL     1      46.650  19.013  18.754  0.00  0.00    -0.418 OA
ATOM     16  O   UNL     1      44.677  15.556  20.759  0.00  0.00    -0.441 OA
ATOM     17  C   UNL     1      47.448  19.469  19.766  0.00  0.00    +0.179 C 
ATOM     18  C   UNL     1      46.520  19.797  20.980  0.00  0.00    -0.040 C 
ATOM     19  C   UNL     1      48.187  20.785  19.668  0.00  0.00    +0.045 C 
ATOM     20  C   UNL     1      49.333  20.710  18.671  0.00  0.00    +0.013 C 
ATOM     21  C   UNL     1      50.345  19.622  19.052  0.00  0.00    +0.018 C 
ENDROOT
TORSDOF 0
ENDMDL
MODEL 8
REMARK VINA RESULT:      -5.3      3.827      6.010
REMARK  Name = ZINC95486250
REMARK  4 active torsions:
REMARK  status: ('A' for Active; 'I' for Inactive)
REMARK    1  A    between atoms: C1_1  and  C2_2
REMARK    2  A    between atoms: C6_6  and  C18_22
REMARK    3  A    between atoms: C6_6  and  C19_23
REMARK    4  A    between atoms: C10_11  and  C17_21
REMARK                            x       y       z     vdW  Elec       q    Type
REMARK                         _______ _______ _______ _____ _____    ______ ____
ROOT
ATOM      1  C   UNL     1      50.200  21.131  18.429  0.00  0.00    +0.010 C 
ATOM      2  C   UNL     1      49.549  19.812  18.888  0.00  0.00    -0.029 C 
ATOM      3  C   UNL     1      50.060  19.478  20.288  0.00  0.00    +0.028 C 
ATOM      4  C   UNL     1      51.559  19.183  20.256  0.00  0.00    -0.005 C 
ATOM      5  C   UNL     1      51.832  18.001  19.332  0.00  0.00    +0.011 C 
ATOM      6  C   UNL     1      51.341  18.283  17.913  0.00  0.00    -0.052 C 
ATOM      7  C   UNL     1      51.513  16.977  17.104  0.00  0.00    +0.011 C 
ATOM      8  C   UNL     1      52.249  19.308  17.232  0.00  0.00    +0.019 C 
ATOM      9  C   UNL     1      48.050  20.129  18.964  0.00  0.00    +0.000 C 
ATOM     10  C   UNL     1      47.770  20.908  20.243  0.00  0.00    +0.023 C 
ATOM     11  C   UNL     1      46.421  21.520  20.310  0.00  0.00    -0.006 C 
ATOM     12  C   UNL     1      45.766  21.339  21.602  0.00  0.00    +0.376 C 
ATOM     13  C   UNL     1      45.467  19.850  21.909  0.00  0.00    -0.012 C 
ATOM     14  C   UNL     1      46.729  19.001  21.853  0.00  0.00    +0.269 C 
ATOM     15  O   UNL     1      47.327  18.551  20.673  0.00  0.00    -0.418 OA
ATOM     16  O   UNL     1      45.485  22.245  22.353  0.00  0.00    -0.441 OA
ATOM     17  C   UNL     1      47.246  18.816  19.334  0.00  0.00    +0.179 C 
ATOM     18  C   UNL     1      45.739  19.065  18.998  0.00  0.00    -0.040 C 
ATOM     19  C   UNL     1      47.551  17.762  18.292  0.00  0.00    +0.045 C 
ATOM     20  C   UNL     1      49.037  17.446  18.236  0.00  0.00    +0.013 C 
ATOM     21  C   UNL     1      49.870  18.693  17.910  0.00  0.00    +0.018 C 
ENDROOT
TORSDOF 0
ENDMDL
MODEL 9
REMARK VINA RESULT:      -5.3     21.886     24.265
REMARK  Name = ZINC95486250
REMARK  4 active torsions:
REMARK  status: ('A' for Active; 'I' for Inactive)
REMARK    1  A    between atoms: C1_1  and  C2_2
REMARK    2  A    between atoms: C6_6  and  C18_22
REMARK    3  A    between atoms: C6_6  and  C19_23
REMARK    4  A    between atoms: C10_11  and  C17_21
REMARK                            x       y       z     vdW  Elec       q    Type
REMARK                         _______ _______ _______ _____ _____    ______ ____
ROOT
ATOM      1  C   UNL     1      53.411  33.115   6.576  0.00  0.00    +0.010 C 
ATOM      2  C   UNL     1      53.689  33.305   5.072  0.00  0.00    -0.029 C 
ATOM      3  C   UNL     1      53.671  34.799   4.758  0.00  0.00    +0.028 C 
ATOM      4  C   UNL     1      52.273  35.377   4.973  0.00  0.00    -0.005 C 
ATOM      5  C   UNL     1      51.277  34.665   4.063  0.00  0.00    +0.011 C 
ATOM      6  C   UNL     1      51.252  33.163   4.337  0.00  0.00    -0.052 C 
ATOM      7  C   UNL     1      50.343  32.520   3.264  0.00  0.00    +0.011 C 
ATOM      8  C   UNL     1      50.568  32.880   5.675  0.00  0.00    +0.019 C 
ATOM      9  C   UNL     1      55.112  32.767   4.872  0.00  0.00    +0.000 C 
ATOM     10  C   UNL     1      56.111  33.809   5.360  0.00  0.00    +0.023 C 
ATOM     11  C   UNL     1      57.503  33.317   5.486  0.00  0.00    -0.006 C 
ATOM     12  C   UNL     1      58.497  34.242   4.950  0.00  0.00    +0.376 C 
ATOM     13  C   UNL     1      58.355  34.437   3.418  0.00  0.00    -0.012 C 
ATOM     14  C   UNL     1      56.959  34.910   3.040  0.00  0.00    +0.269 C 
ATOM     15  O   UNL     1      55.840  34.078   2.953  0.00  0.00    -0.418 OA
ATOM     16  O   UNL     1      59.338  34.797   5.618  0.00  0.00    -0.441 OA
ATOM     17  C   UNL     1      55.488  32.813   3.335  0.00  0.00    +0.179 C 
ATOM     18  C   UNL     1      56.736  31.897   3.118  0.00  0.00    -0.040 C 
ATOM     19  C   UNL     1      54.463  32.005   2.570  0.00  0.00    +0.045 C 
ATOM     20  C   UNL     1      53.059  32.555   2.764  0.00  0.00    +0.013 C 
ATOM     21  C   UNL     1      52.653  32.562   4.243  0.00  0.00    +0.018 C 
ENDROOT
TORSDOF 0
ENDMDL
