MODEL 1
REMARK VINA RESULT:      -6.3      0.000      0.000
REMARK  Name = ZINC95486341
REMARK  9 active torsions:
REMARK  status: ('A' for Active; 'I' for Inactive)
REMARK    1  A    between atoms: C3_3  and  O10_36
REMARK    2  A    between atoms: C4_4  and  O9_35
REMARK    3  A    between atoms: C6_6  and  C7_7
REMARK    4  A    between atoms: C8_9  and  C16_22
REMARK    5  A    between atoms: C11_14  and  O4_21
REMARK    6  A    between atoms: C13_16  and  O3_20
REMARK    7  A    between atoms: C17_24  and  O8_34
REMARK    8  A    between atoms: C18_26  and  O7_33
REMARK    9  A    between atoms: C19_28  and  O6_32
REMARK                            x       y       z     vdW  Elec       q    Type
REMARK                         _______ _______ _______ _____ _____    ______ ____
ROOT
ATOM     11  C   UNL     1      48.176  20.388  20.006  0.00  0.00    +0.242 C 
ATOM     12  C   UNL     1      48.415  18.901  20.306  0.00  0.00    -0.023 C 
ATOM     25  C   UNL     1      49.913  18.665  20.244  0.00  0.00    +0.426 C 
ATOM     26  C   UNL     1      50.642  19.355  19.174  0.00  0.00    -0.264 A 
ATOM     27  C   UNL     1      51.970  19.009  18.875  0.00  0.00    +0.220 A 
ATOM     30  C   UNL     1      52.638  19.683  17.869  0.00  0.00    -0.083 A 
ATOM     31  C   UNL     1      51.997  20.693  17.161  0.00  0.00    +0.190 A 
ATOM     34  C   UNL     1      50.682  21.035  17.449  0.00  0.00    -0.062 A 
ATOM     35  C   UNL     1      49.994  20.372  18.451  0.00  0.00    +0.229 A 
ATOM     36  O   UNL     1      50.478  17.943  21.039  0.00  0.00    -0.407 OA
ATOM     37  O   UNL     1      48.708  20.702  18.719  0.00  0.00    -0.285 OA
ENDROOT
BRANCH  11  10
ATOM      1  C   UNL     1      46.042  20.986  18.843  0.00  0.00    +0.052 A 
ATOM      2  C   UNL     1      44.684  21.249  18.851  0.00  0.00    +0.006 A 
ATOM      3  C   UNL     1      43.976  21.196  20.041  0.00  0.00    +0.094 A 
ATOM      6  C   UNL     1      44.634  20.881  21.226  0.00  0.00    +0.084 A 
ATOM      9  C   UNL     1      45.995  20.619  21.210  0.00  0.00    +0.028 A 
ATOM     10  C   UNL     1      46.696  20.672  20.020  0.00  0.00    -0.084 A 
BRANCH   3   4
ATOM      4  O   UNL     1      42.640  21.454  20.051  0.00  0.00    -0.486 OA
ATOM      5  H   UNL     1      42.088  20.671  19.928  0.00  0.00    +0.391 HD
ENDBRANCH   3   4
BRANCH   6   7
ATOM      7  O   UNL     1      43.943  20.828  22.396  0.00  0.00    -0.484 OA
ATOM      8  H   UNL     1      43.272  21.518  22.488  0.00  0.00    +0.390 HD
ENDBRANCH   6   7
ENDBRANCH  11  10
BRANCH  12  13
ATOM     13  C   UNL     1      47.706  18.038  19.260  0.00  0.00    +0.203 C 
ATOM     14  C   UNL     1      46.655  17.162  19.949  0.00  0.00    +0.165 C 
ATOM     17  C   UNL     1      45.991  16.259  18.904  0.00  0.00    +0.152 C 
ATOM     20  C   UNL     1      47.072  15.428  18.204  0.00  0.00    +0.123 C 
ATOM     23  C   UNL     1      48.107  16.371  17.583  0.00  0.00    +0.196 C 
ATOM     24  O   UNL     1      48.662  17.204  18.603  0.00  0.00    -0.343 OA
BRANCH  14  15
ATOM     15  O   UNL     1      47.283  16.358  20.948  0.00  0.00    -0.540 OA
ATOM     16  H   UNL     1      46.949  16.509  21.842  0.00  0.00    +0.387 HD
ENDBRANCH  14  15
BRANCH  17  18
ATOM     18  O   UNL     1      45.060  15.388  19.549  0.00  0.00    -0.560 OA
ATOM     19  H   UNL     1      44.596  14.791  18.944  0.00  0.00    +0.392 HD
ENDBRANCH  17  18
BRANCH  20  21
ATOM     21  O   UNL     1      46.473  14.633  17.179  0.00  0.00    -0.564 OA
ATOM     22  H   UNL     1      46.272  15.121  16.369  0.00  0.00    +0.387 HD
ENDBRANCH  20  21
ENDBRANCH  12  13
BRANCH  27  28
ATOM     28  O   UNL     1      52.592  18.022  19.566  0.00  0.00    -0.476 OA
ATOM     29  H   UNL     1      52.559  17.158  19.133  0.00  0.00    +0.399 HD
ENDBRANCH  27  28
BRANCH  31  32
ATOM     32  O   UNL     1      52.662  21.352  16.179  0.00  0.00    -0.492 OA
ATOM     33  H   UNL     1      52.459  22.297  16.133  0.00  0.00    +0.399 HD
ENDBRANCH  31  32
TORSDOF 9
ENDMDL
MODEL 2
REMARK VINA RESULT:      -6.1      1.826      6.174
REMARK  Name = ZINC95486341
REMARK  9 active torsions:
REMARK  status: ('A' for Active; 'I' for Inactive)
REMARK    1  A    between atoms: C3_3  and  O10_36
REMARK    2  A    between atoms: C4_4  and  O9_35
REMARK    3  A    between atoms: C6_6  and  C7_7
REMARK    4  A    between atoms: C8_9  and  C16_22
REMARK    5  A    between atoms: C11_14  and  O4_21
REMARK    6  A    between atoms: C13_16  and  O3_20
REMARK    7  A    between atoms: C17_24  and  O8_34
REMARK    8  A    between atoms: C18_26  and  O7_33
REMARK    9  A    between atoms: C19_28  and  O6_32
REMARK                            x       y       z     vdW  Elec       q    Type
REMARK                         _______ _______ _______ _____ _____    ______ ____
ROOT
ATOM     11  C   UNL     1      46.990  18.272  19.586  0.00  0.00    +0.242 C 
ATOM     12  C   UNL     1      48.326  18.837  20.089  0.00  0.00    -0.023 C 
ATOM     25  C   UNL     1      48.004  20.012  20.996  0.00  0.00    +0.426 C 
ATOM     26  C   UNL     1      46.914  20.894  20.564  0.00  0.00    -0.264 A 
ATOM     27  C   UNL     1      46.708  22.135  21.188  0.00  0.00    +0.220 A 
ATOM     30  C   UNL     1      45.667  22.943  20.770  0.00  0.00    -0.083 A 
ATOM     31  C   UNL     1      44.833  22.527  19.739  0.00  0.00    +0.190 A 
ATOM     34  C   UNL     1      45.036  21.304  19.114  0.00  0.00    -0.062 A 
ATOM     35  C   UNL     1      46.074  20.480  19.515  0.00  0.00    +0.229 A 
ATOM     36  O   UNL     1      48.616  20.209  22.024  0.00  0.00    -0.407 OA
ATOM     37  O   UNL     1      46.274  19.294  18.894  0.00  0.00    -0.285 OA
ENDROOT
BRANCH  11  10
ATOM      1  C   UNL     1      48.140  16.125  19.012  0.00  0.00    +0.052 A 
ATOM      2  C   UNL     1      48.385  15.066  18.156  0.00  0.00    +0.006 A 
ATOM      3  C   UNL     1      47.737  15.002  16.933  0.00  0.00    +0.094 A 
ATOM      6  C   UNL     1      46.843  16.003  16.568  0.00  0.00    +0.084 A 
ATOM      9  C   UNL     1      46.603  17.061  17.430  0.00  0.00    +0.028 A 
ATOM     10  C   UNL     1      47.252  17.120  18.650  0.00  0.00    -0.084 A 
BRANCH   3   4
ATOM      4  O   UNL     1      47.977  13.961  16.090  0.00  0.00    -0.486 OA
ATOM      5  H   UNL     1      48.902  13.682  16.063  0.00  0.00    +0.391 HD
ENDBRANCH   3   4
BRANCH   6   7
ATOM      7  O   UNL     1      46.206  15.944  15.368  0.00  0.00    -0.484 OA
ATOM      8  H   UNL     1      45.241  15.971  15.433  0.00  0.00    +0.390 HD
ENDBRANCH   6   7
ENDBRANCH  11  10
BRANCH  12  13
ATOM     13  C   UNL     1      49.170  19.309  18.903  0.00  0.00    +0.203 C 
ATOM     14  C   UNL     1      50.483  18.521  18.867  0.00  0.00    +0.165 C 
ATOM     17  C   UNL     1      51.348  19.039  17.713  0.00  0.00    +0.152 C 
ATOM     20  C   UNL     1      51.578  20.543  17.898  0.00  0.00    +0.123 C 
ATOM     23  C   UNL     1      50.224  21.253  17.973  0.00  0.00    +0.196 C 
ATOM     24  O   UNL     1      49.457  20.701  19.046  0.00  0.00    -0.343 OA
BRANCH  14  15
ATOM     15  O   UNL     1      51.178  18.693  20.102  0.00  0.00    -0.540 OA
ATOM     16  H   UNL     1      52.132  18.542  20.042  0.00  0.00    +0.387 HD
ENDBRANCH  14  15
BRANCH  17  18
ATOM     18  O   UNL     1      52.604  18.359  17.716  0.00  0.00    -0.560 OA
ATOM     19  H   UNL     1      52.778  17.857  18.525  0.00  0.00    +0.392 HD
ENDBRANCH  17  18
BRANCH  20  21
ATOM     21  O   UNL     1      52.325  21.051  16.791  0.00  0.00    -0.564 OA
ATOM     22  H   UNL     1      53.003  20.445  16.463  0.00  0.00    +0.387 HD
ENDBRANCH  20  21
ENDBRANCH  12  13
BRANCH  27  28
ATOM     28  O   UNL     1      47.524  22.538  22.193  0.00  0.00    -0.476 OA
ATOM     29  H   UNL     1      48.335  22.017  22.276  0.00  0.00    +0.399 HD
ENDBRANCH  27  28
BRANCH  31  32
ATOM     32  O   UNL     1      43.811  23.324  19.338  0.00  0.00    -0.492 OA
ATOM     33  H   UNL     1      43.939  24.261  19.544  0.00  0.00    +0.399 HD
ENDBRANCH  31  32
TORSDOF 9
ENDMDL
MODEL 3
REMARK VINA RESULT:      -5.9      1.700      6.152
REMARK  Name = ZINC95486341
REMARK  9 active torsions:
REMARK  status: ('A' for Active; 'I' for Inactive)
REMARK    1  A    between atoms: C3_3  and  O10_36
REMARK    2  A    between atoms: C4_4  and  O9_35
REMARK    3  A    between atoms: C6_6  and  C7_7
REMARK    4  A    between atoms: C8_9  and  C16_22
REMARK    5  A    between atoms: C11_14  and  O4_21
REMARK    6  A    between atoms: C13_16  and  O3_20
REMARK    7  A    between atoms: C17_24  and  O8_34
REMARK    8  A    between atoms: C18_26  and  O7_33
REMARK    9  A    between atoms: C19_28  and  O6_32
REMARK                            x       y       z     vdW  Elec       q    Type
REMARK                         _______ _______ _______ _____ _____    ______ ____
ROOT
ATOM     11  C   UNL     1      49.392  18.151  19.955  0.00  0.00    +0.242 C 
ATOM     12  C   UNL     1      48.111  18.523  20.716  0.00  0.00    -0.023 C 
ATOM     25  C   UNL     1      47.185  17.322  20.651  0.00  0.00    +0.426 C 
ATOM     26  C   UNL     1      47.134  16.601  19.374  0.00  0.00    -0.264 A 
ATOM     27  C   UNL     1      46.134  15.645  19.131  0.00  0.00    +0.220 A 
ATOM     30  C   UNL     1      46.116  14.973  17.923  0.00  0.00    -0.083 A 
ATOM     31  C   UNL     1      47.079  15.243  16.959  0.00  0.00    +0.190 A 
ATOM     34  C   UNL     1      48.067  16.192  17.192  0.00  0.00    -0.062 A 
ATOM     35  C   UNL     1      48.103  16.879  18.393  0.00  0.00    +0.229 A 
ATOM     36  O   UNL     1      46.523  16.974  21.607  0.00  0.00    -0.407 OA
ATOM     37  O   UNL     1      49.061  17.811  18.610  0.00  0.00    -0.285 OA
ENDROOT
BRANCH  11  10
ATOM      1  C   UNL     1      50.741  19.882  21.157  0.00  0.00    +0.052 A 
ATOM      2  C   UNL     1      51.608  20.961  21.165  0.00  0.00    +0.006 A 
ATOM      3  C   UNL     1      52.073  21.484  19.970  0.00  0.00    +0.094 A 
ATOM      6  C   UNL     1      51.665  20.924  18.763  0.00  0.00    +0.084 A 
ATOM      9  C   UNL     1      50.797  19.844  18.762  0.00  0.00    +0.028 A 
ATOM     10  C   UNL     1      50.337  19.326  19.959  0.00  0.00    -0.084 A 
BRANCH   3   4
ATOM      4  O   UNL     1      52.925  22.545  19.976  0.00  0.00    -0.486 OA
ATOM      5  H   UNL     1      53.196  22.826  20.860  0.00  0.00    +0.391 HD
ENDBRANCH   3   4
BRANCH   6   7
ATOM      7  O   UNL     1      52.119  21.434  17.586  0.00  0.00    -0.484 OA
ATOM      8  H   UNL     1      51.433  21.539  16.912  0.00  0.00    +0.390 HD
ENDBRANCH   6   7
ENDBRANCH  11  10
BRANCH  12  13
ATOM     13  C   UNL     1      47.445  19.732  20.056  0.00  0.00    +0.203 C 
ATOM     14  C   UNL     1      47.118  20.781  21.123  0.00  0.00    +0.165 C 
ATOM     17  C   UNL     1      46.398  21.961  20.462  0.00  0.00    +0.152 C 
ATOM     20  C   UNL     1      45.143  21.446  19.750  0.00  0.00    +0.123 C 
ATOM     23  C   UNL     1      45.547  20.372  18.737  0.00  0.00    +0.196 C 
ATOM     24  O   UNL     1      46.239  19.319  19.411  0.00  0.00    -0.343 OA
BRANCH  14  15
ATOM     15  O   UNL     1      46.274  20.202  22.119  0.00  0.00    -0.540 OA
ATOM     16  H   UNL     1      45.442  19.850  21.774  0.00  0.00    +0.387 HD
ENDBRANCH  14  15
BRANCH  17  18
ATOM     18  O   UNL     1      46.026  22.912  21.462  0.00  0.00    -0.560 OA
ATOM     19  H   UNL     1      45.601  22.521  22.238  0.00  0.00    +0.392 HD
ENDBRANCH  17  18
BRANCH  20  21
ATOM     21  O   UNL     1      44.502  22.528  19.072  0.00  0.00    -0.564 OA
ATOM     22  H   UNL     1      44.233  23.252  19.653  0.00  0.00    +0.387 HD
ENDBRANCH  20  21
ENDBRANCH  12  13
BRANCH  27  28
ATOM     28  O   UNL     1      45.195  15.385  20.073  0.00  0.00    -0.476 OA
ATOM     29  H   UNL     1      44.811  16.176  20.477  0.00  0.00    +0.399 HD
ENDBRANCH  27  28
BRANCH  31  32
ATOM     32  O   UNL     1      47.056  14.575  15.779  0.00  0.00    -0.492 OA
ATOM     33  H   UNL     1      47.746  13.902  15.695  0.00  0.00    +0.399 HD
ENDBRANCH  31  32
TORSDOF 9
ENDMDL
MODEL 4
REMARK VINA RESULT:      -5.9      2.082      5.955
REMARK  Name = ZINC95486341
REMARK  9 active torsions:
REMARK  status: ('A' for Active; 'I' for Inactive)
REMARK    1  A    between atoms: C3_3  and  O10_36
REMARK    2  A    between atoms: C4_4  and  O9_35
REMARK    3  A    between atoms: C6_6  and  C7_7
REMARK    4  A    between atoms: C8_9  and  C16_22
REMARK    5  A    between atoms: C11_14  and  O4_21
REMARK    6  A    between atoms: C13_16  and  O3_20
REMARK    7  A    between atoms: C17_24  and  O8_34
REMARK    8  A    between atoms: C18_26  and  O7_33
REMARK    9  A    between atoms: C19_28  and  O6_32
REMARK                            x       y       z     vdW  Elec       q    Type
REMARK                         _______ _______ _______ _____ _____    ______ ____
ROOT
ATOM     11  C   UNL     1      48.748  17.603  19.900  0.00  0.00    +0.242 C 
ATOM     12  C   UNL     1      50.196  18.093  19.749  0.00  0.00    -0.023 C 
ATOM     25  C   UNL     1      50.450  19.094  20.862  0.00  0.00    +0.426 C 
ATOM     26  C   UNL     1      49.356  20.023  21.169  0.00  0.00    -0.264 A 
ATOM     27  C   UNL     1      49.576  21.139  21.993  0.00  0.00    +0.220 A 
ATOM     30  C   UNL     1      48.526  21.992  22.277  0.00  0.00    -0.083 A 
ATOM     31  C   UNL     1      47.265  21.746  21.749  0.00  0.00    +0.190 A 
ATOM     34  C   UNL     1      47.043  20.647  20.929  0.00  0.00    -0.062 A 
ATOM     35  C   UNL     1      48.080  19.781  20.630  0.00  0.00    +0.229 A 
ATOM     36  O   UNL     1      51.502  19.124  21.465  0.00  0.00    -0.407 OA
ATOM     37  O   UNL     1      47.861  18.717  19.821  0.00  0.00    -0.285 OA
ENDROOT
BRANCH  11  10
ATOM      1  C   UNL     1      49.060  15.398  18.759  0.00  0.00    +0.052 A 
ATOM      2  C   UNL     1      48.772  14.500  17.746  0.00  0.00    +0.006 A 
ATOM      3  C   UNL     1      47.849  14.832  16.769  0.00  0.00    +0.094 A 
ATOM      6  C   UNL     1      47.214  16.070  16.806  0.00  0.00    +0.084 A 
ATOM      9  C   UNL     1      47.507  16.964  17.823  0.00  0.00    +0.028 A 
ATOM     10  C   UNL     1      48.430  16.627  18.796  0.00  0.00    -0.084 A 
BRANCH   3   4
ATOM      4  O   UNL     1      47.564  13.950  15.773  0.00  0.00    -0.486 OA
ATOM      5  H   UNL     1      48.211  13.237  15.683  0.00  0.00    +0.391 HD
ENDBRANCH   3   4
BRANCH   6   7
ATOM      7  O   UNL     1      46.307  16.400  15.848  0.00  0.00    -0.484 OA
ATOM      8  H   UNL     1      46.688  16.507  14.966  0.00  0.00    +0.390 HD
ENDBRANCH   6   7
ENDBRANCH  11  10
BRANCH  12  13
ATOM     13  C   UNL     1      50.378  18.766  18.388  0.00  0.00    +0.203 C 
ATOM     14  C   UNL     1      51.295  17.907  17.512  0.00  0.00    +0.165 C 
ATOM     17  C   UNL     1      51.520  18.617  16.173  0.00  0.00    +0.152 C 
ATOM     20  C   UNL     1      52.106  20.008  16.438  0.00  0.00    +0.123 C 
ATOM     23  C   UNL     1      51.158  20.786  17.355  0.00  0.00    +0.196 C 
ATOM     24  O   UNL     1      50.966  20.055  18.569  0.00  0.00    -0.343 OA
BRANCH  14  15
ATOM     15  O   UNL     1      52.547  17.720  18.172  0.00  0.00    -0.540 OA
ATOM     16  H   UNL     1      52.944  18.537  18.503  0.00  0.00    +0.387 HD
ENDBRANCH  14  15
BRANCH  17  18
ATOM     18  O   UNL     1      52.432  17.857  15.378  0.00  0.00    -0.560 OA
ATOM     19  H   UNL     1      53.327  17.811  15.741  0.00  0.00    +0.392 HD
ENDBRANCH  17  18
BRANCH  20  21
ATOM     21  O   UNL     1      52.255  20.706  15.200  0.00  0.00    -0.564 OA
ATOM     22  H   UNL     1      51.539  20.547  14.570  0.00  0.00    +0.387 HD
ENDBRANCH  20  21
ENDBRANCH  12  13
BRANCH  27  28
ATOM     28  O   UNL     1      50.809  21.378  22.505  0.00  0.00    -0.476 OA
ATOM     29  H   UNL     1      50.991  22.313  22.672  0.00  0.00    +0.399 HD
ENDBRANCH  27  28
BRANCH  31  32
ATOM     32  O   UNL     1      46.239  22.586  22.037  0.00  0.00    -0.492 OA
ATOM     33  H   UNL     1      45.818  22.414  22.891  0.00  0.00    +0.399 HD
ENDBRANCH  31  32
TORSDOF 9
ENDMDL
MODEL 5
REMARK VINA RESULT:      -5.8      1.787      6.299
REMARK  Name = ZINC95486341
REMARK  9 active torsions:
REMARK  status: ('A' for Active; 'I' for Inactive)
REMARK    1  A    between atoms: C3_3  and  O10_36
REMARK    2  A    between atoms: C4_4  and  O9_35
REMARK    3  A    between atoms: C6_6  and  C7_7
REMARK    4  A    between atoms: C8_9  and  C16_22
REMARK    5  A    between atoms: C11_14  and  O4_21
REMARK    6  A    between atoms: C13_16  and  O3_20
REMARK    7  A    between atoms: C17_24  and  O8_34
REMARK    8  A    between atoms: C18_26  and  O7_33
REMARK    9  A    between atoms: C19_28  and  O6_32
REMARK                            x       y       z     vdW  Elec       q    Type
REMARK                         _______ _______ _______ _____ _____    ______ ____
ROOT
ATOM     11  C   UNL     1      49.724  17.156  18.250  0.00  0.00    +0.242 C 
ATOM     12  C   UNL     1      48.845  17.657  19.406  0.00  0.00    -0.023 C 
ATOM     25  C   UNL     1      48.095  16.456  19.953  0.00  0.00    +0.426 C 
ATOM     26  C   UNL     1      47.587  15.495  18.967  0.00  0.00    -0.264 A 
ATOM     27  C   UNL     1      46.673  14.498  19.345  0.00  0.00    +0.220 A 
ATOM     30  C   UNL     1      46.218  13.598  18.399  0.00  0.00    -0.083 A 
ATOM     31  C   UNL     1      46.663  13.683  17.085  0.00  0.00    +0.190 A 
ATOM     34  C   UNL     1      47.563  14.670  16.705  0.00  0.00    -0.062 A 
ATOM     35  C   UNL     1      48.030  15.583  17.635  0.00  0.00    +0.229 A 
ATOM     36  O   UNL     1      47.926  16.298  21.144  0.00  0.00    -0.407 OA
ATOM     37  O   UNL     1      48.898  16.550  17.256  0.00  0.00    -0.285 OA
ENDROOT
BRANCH  11  10
ATOM      1  C   UNL     1      50.787  18.308  16.299  0.00  0.00    +0.052 A 
ATOM      2  C   UNL     1      51.471  19.372  15.739  0.00  0.00    +0.006 A 
ATOM      3  C   UNL     1      51.837  20.451  16.527  0.00  0.00    +0.094 A 
ATOM      6  C   UNL     1      51.516  20.461  17.880  0.00  0.00    +0.084 A 
ATOM      9  C   UNL     1      50.831  19.392  18.435  0.00  0.00    +0.028 A 
ATOM     10  C   UNL     1      50.469  18.318  17.644  0.00  0.00    -0.084 A 
BRANCH   3   4
ATOM      4  O   UNL     1      52.509  21.498  15.977  0.00  0.00    -0.486 OA
ATOM      5  H   UNL     1      53.320  21.735  16.447  0.00  0.00    +0.391 HD
ENDBRANCH   3   4
BRANCH   6   7
ATOM      7  O   UNL     1      51.874  21.519  18.658  0.00  0.00    -0.484 OA
ATOM      8  H   UNL     1      52.819  21.556  18.860  0.00  0.00    +0.390 HD
ENDBRANCH   6   7
ENDBRANCH  11  10
BRANCH  12  13
ATOM     13  C   UNL     1      47.854  18.702  18.891  0.00  0.00    +0.203 C 
ATOM     14  C   UNL     1      47.783  19.869  19.880  0.00  0.00    +0.165 C 
ATOM     17  C   UNL     1      46.745  20.882  19.388  0.00  0.00    +0.152 C 
ATOM     20  C   UNL     1      45.395  20.176  19.225  0.00  0.00    +0.123 C 
ATOM     23  C   UNL     1      45.558  18.997  18.262  0.00  0.00    +0.196 C 
ATOM     24  O   UNL     1      46.561  18.109  18.762  0.00  0.00    -0.343 OA
BRANCH  14  15
ATOM     15  O   UNL     1      47.403  19.381  21.168  0.00  0.00    -0.540 OA
ATOM     16  H   UNL     1      48.137  19.022  21.685  0.00  0.00    +0.387 HD
ENDBRANCH  14  15
BRANCH  17  18
ATOM     18  O   UNL     1      46.621  21.939  20.342  0.00  0.00    -0.560 OA
ATOM     19  H   UNL     1      46.325  22.779  19.962  0.00  0.00    +0.392 HD
ENDBRANCH  17  18
BRANCH  20  21
ATOM     21  O   UNL     1      44.435  21.095  18.700  0.00  0.00    -0.564 OA
ATOM     22  H   UNL     1      43.527  20.916  18.978  0.00  0.00    +0.387 HD
ENDBRANCH  20  21
ENDBRANCH  12  13
BRANCH  27  28
ATOM     28  O   UNL     1      46.238  14.420  20.627  0.00  0.00    -0.476 OA
ATOM     29  H   UNL     1      46.040  15.277  21.029  0.00  0.00    +0.399 HD
ENDBRANCH  27  28
BRANCH  31  32
ATOM     32  O   UNL     1      46.216  12.793  16.165  0.00  0.00    -0.492 OA
ATOM     33  H   UNL     1      46.195  13.138  15.261  0.00  0.00    +0.399 HD
ENDBRANCH  31  32
TORSDOF 9
ENDMDL
MODEL 6
REMARK VINA RESULT:      -5.5      2.020      5.467
REMARK  Name = ZINC95486341
REMARK  9 active torsions:
REMARK  status: ('A' for Active; 'I' for Inactive)
REMARK    1  A    between atoms: C3_3  and  O10_36
REMARK    2  A    between atoms: C4_4  and  O9_35
REMARK    3  A    between atoms: C6_6  and  C7_7
REMARK    4  A    between atoms: C8_9  and  C16_22
REMARK    5  A    between atoms: C11_14  and  O4_21
REMARK    6  A    between atoms: C13_16  and  O3_20
REMARK    7  A    between atoms: C17_24  and  O8_34
REMARK    8  A    between atoms: C18_26  and  O7_33
REMARK    9  A    between atoms: C19_28  and  O6_32
REMARK                            x       y       z     vdW  Elec       q    Type
REMARK                         _______ _______ _______ _____ _____    ______ ____
ROOT
ATOM     11  C   UNL     1      45.569  18.766  18.831  0.00  0.00    +0.242 C 
ATOM     12  C   UNL     1      47.044  18.821  18.404  0.00  0.00    -0.023 C 
ATOM     25  C   UNL     1      47.334  17.550  17.626  0.00  0.00    +0.426 C 
ATOM     26  C   UNL     1      46.732  16.314  18.141  0.00  0.00    -0.264 A 
ATOM     27  C   UNL     1      47.140  15.062  17.652  0.00  0.00    +0.220 A 
ATOM     30  C   UNL     1      46.549  13.914  18.145  0.00  0.00    -0.083 A 
ATOM     31  C   UNL     1      45.560  14.001  19.118  0.00  0.00    +0.190 A 
ATOM     34  C   UNL     1      45.158  15.236  19.609  0.00  0.00    -0.062 A 
ATOM     35  C   UNL     1      45.737  16.399  19.131  0.00  0.00    +0.229 A 
ATOM     36  O   UNL     1      48.027  17.556  16.630  0.00  0.00    -0.407 OA
ATOM     37  O   UNL     1      45.349  17.599  19.623  0.00  0.00    -0.285 OA
ENDROOT
BRANCH  11  10
ATOM      1  C   UNL     1      45.060  19.891  21.007  0.00  0.00    +0.052 A 
ATOM      2  C   UNL     1      44.752  21.014  21.754  0.00  0.00    +0.006 A 
ATOM      3  C   UNL     1      44.618  22.244  21.130  0.00  0.00    +0.094 A 
ATOM      6  C   UNL     1      44.792  22.346  19.754  0.00  0.00    +0.084 A 
ATOM      9  C   UNL     1      45.101  21.218  19.012  0.00  0.00    +0.028 A 
ATOM     10  C   UNL     1      45.234  19.993  19.640  0.00  0.00    -0.084 A 
BRANCH   3   4
ATOM      4  O   UNL     1      44.314  23.349  21.863  0.00  0.00    -0.486 OA
ATOM      5  H   UNL     1      44.547  23.277  22.799  0.00  0.00    +0.391 HD
ENDBRANCH   3   4
BRANCH   6   7
ATOM      7  O   UNL     1      44.661  23.552  19.138  0.00  0.00    -0.484 OA
ATOM      8  H   UNL     1      43.846  23.646  18.627  0.00  0.00    +0.390 HD
ENDBRANCH   6   7
ENDBRANCH  11  10
BRANCH  12  13
ATOM     13  C   UNL     1      47.941  18.893  19.641  0.00  0.00    +0.203 C 
ATOM     14  C   UNL     1      48.954  20.029  19.471  0.00  0.00    +0.165 C 
ATOM     17  C   UNL     1      49.887  20.056  20.686  0.00  0.00    +0.152 C 
ATOM     20  C   UNL     1      50.564  18.689  20.827  0.00  0.00    +0.123 C 
ATOM     23  C   UNL     1      49.489  17.606  20.945  0.00  0.00    +0.196 C 
ATOM     24  O   UNL     1      48.637  17.655  19.798  0.00  0.00    -0.343 OA
BRANCH  14  15
ATOM     15  O   UNL     1      49.720  19.812  18.285  0.00  0.00    -0.540 OA
ATOM     16  H   UNL     1      49.284  19.246  17.633  0.00  0.00    +0.387 HD
ENDBRANCH  14  15
BRANCH  17  18
ATOM     18  O   UNL     1      50.880  21.067  20.502  0.00  0.00    -0.560 OA
ATOM     19  H   UNL     1      51.740  20.726  20.217  0.00  0.00    +0.392 HD
ENDBRANCH  17  18
BRANCH  20  21
ATOM     21  O   UNL     1      51.383  18.681  21.998  0.00  0.00    -0.564 OA
ATOM     22  H   UNL     1      51.363  17.846  22.486  0.00  0.00    +0.387 HD
ENDBRANCH  20  21
ENDBRANCH  12  13
BRANCH  27  28
ATOM     28  O   UNL     1      48.106  14.980  16.704  0.00  0.00    -0.476 OA
ATOM     29  H   UNL     1      48.841  15.595  16.836  0.00  0.00    +0.399 HD
ENDBRANCH  27  28
BRANCH  31  32
ATOM     32  O   UNL     1      44.983  12.870  19.593  0.00  0.00    -0.492 OA
ATOM     33  H   UNL     1      44.134  13.017  20.035  0.00  0.00    +0.399 HD
ENDBRANCH  31  32
TORSDOF 9
ENDMDL
MODEL 7
REMARK VINA RESULT:      -5.5      3.104      5.817
REMARK  Name = ZINC95486341
REMARK  9 active torsions:
REMARK  status: ('A' for Active; 'I' for Inactive)
REMARK    1  A    between atoms: C3_3  and  O10_36
REMARK    2  A    between atoms: C4_4  and  O9_35
REMARK    3  A    between atoms: C6_6  and  C7_7
REMARK    4  A    between atoms: C8_9  and  C16_22
REMARK    5  A    between atoms: C11_14  and  O4_21
REMARK    6  A    between atoms: C13_16  and  O3_20
REMARK    7  A    between atoms: C17_24  and  O8_34
REMARK    8  A    between atoms: C18_26  and  O7_33
REMARK    9  A    between atoms: C19_28  and  O6_32
REMARK                            x       y       z     vdW  Elec       q    Type
REMARK                         _______ _______ _______ _____ _____    ______ ____
ROOT
ATOM     11  C   UNL     1      51.558  17.717  19.391  0.00  0.00    +0.242 C 
ATOM     12  C   UNL     1      50.113  17.280  19.676  0.00  0.00    -0.023 C 
ATOM     25  C   UNL     1      50.182  16.089  20.615  0.00  0.00    +0.426 C 
ATOM     26  C   UNL     1      51.240  15.106  20.352  0.00  0.00    -0.264 A 
ATOM     27  C   UNL     1      51.232  13.857  20.993  0.00  0.00    +0.220 A 
ATOM     30  C   UNL     1      52.247  12.954  20.737  0.00  0.00    -0.083 A 
ATOM     31  C   UNL     1      53.265  13.283  19.850  0.00  0.00    +0.190 A 
ATOM     34  C   UNL     1      53.275  14.515  19.209  0.00  0.00    -0.062 A 
ATOM     35  C   UNL     1      52.267  15.433  19.449  0.00  0.00    +0.229 A 
ATOM     36  O   UNL     1      49.402  15.957  21.535  0.00  0.00    -0.407 OA
ATOM     37  O   UNL     1      52.276  16.628  18.812  0.00  0.00    -0.285 OA
ENDROOT
BRANCH  11  10
ATOM      1  C   UNL     1      51.020  20.095  18.825  0.00  0.00    +0.052 A 
ATOM      2  C   UNL     1      51.011  21.165  17.948  0.00  0.00    +0.006 A 
ATOM      3  C   UNL     1      51.535  21.020  16.674  0.00  0.00    +0.094 A 
ATOM      6  C   UNL     1      52.070  19.798  16.279  0.00  0.00    +0.084 A 
ATOM      9  C   UNL     1      52.076  18.731  17.162  0.00  0.00    +0.028 A 
ATOM     10  C   UNL     1      51.551  18.880  18.432  0.00  0.00    -0.084 A 
BRANCH   3   4
ATOM      4  O   UNL     1      51.527  22.072  15.811  0.00  0.00    -0.486 OA
ATOM      5  H   UNL     1      50.713  22.594  15.836  0.00  0.00    +0.391 HD
ENDBRANCH   3   4
BRANCH   6   7
ATOM      7  O   UNL     1      52.586  19.652  15.029  0.00  0.00    -0.484 OA
ATOM      8  H   UNL     1      52.608  20.470  14.514  0.00  0.00    +0.390 HD
ENDBRANCH   6   7
ENDBRANCH  11  10
BRANCH  12  13
ATOM     13  C   UNL     1      49.423  16.878  18.371  0.00  0.00    +0.203 C 
ATOM     14  C   UNL     1      48.057  17.564  18.285  0.00  0.00    +0.165 C 
ATOM     17  C   UNL     1      47.347  17.110  17.005  0.00  0.00    +0.152 C 
ATOM     20  C   UNL     1      47.231  15.583  17.013  0.00  0.00    +0.123 C 
ATOM     23  C   UNL     1      48.630  14.974  17.149  0.00  0.00    +0.196 C 
ATOM     24  O   UNL     1      49.246  15.461  18.343  0.00  0.00    -0.343 OA
BRANCH  14  15
ATOM     15  O   UNL     1      47.270  17.206  19.421  0.00  0.00    -0.540 OA
ATOM     16  H   UNL     1      46.925  16.303  19.393  0.00  0.00    +0.387 HD
ENDBRANCH  14  15
BRANCH  17  18
ATOM     18  O   UNL     1      46.042  17.690  16.952  0.00  0.00    -0.560 OA
ATOM     19  H   UNL     1      46.014  18.556  16.521  0.00  0.00    +0.392 HD
ENDBRANCH  17  18
BRANCH  20  21
ATOM     21  O   UNL     1      46.634  15.143  15.791  0.00  0.00    -0.564 OA
ATOM     22  H   UNL     1      46.424  14.199  15.774  0.00  0.00    +0.387 HD
ENDBRANCH  20  21
ENDBRANCH  12  13
BRANCH  27  28
ATOM     28  O   UNL     1      50.236  13.539  21.857  0.00  0.00    -0.476 OA
ATOM     29  H   UNL     1      50.248  14.051  22.678  0.00  0.00    +0.399 HD
ENDBRANCH  27  28
BRANCH  31  32
ATOM     32  O   UNL     1      54.259  12.393  19.608  0.00  0.00    -0.492 OA
ATOM     33  H   UNL     1      55.149  12.752  19.738  0.00  0.00    +0.399 HD
ENDBRANCH  31  32
TORSDOF 9
ENDMDL
MODEL 8
REMARK VINA RESULT:      -5.5      3.083      6.350
REMARK  Name = ZINC95486341
REMARK  9 active torsions:
REMARK  status: ('A' for Active; 'I' for Inactive)
REMARK    1  A    between atoms: C3_3  and  O10_36
REMARK    2  A    between atoms: C4_4  and  O9_35
REMARK    3  A    between atoms: C6_6  and  C7_7
REMARK    4  A    between atoms: C8_9  and  C16_22
REMARK    5  A    between atoms: C11_14  and  O4_21
REMARK    6  A    between atoms: C13_16  and  O3_20
REMARK    7  A    between atoms: C17_24  and  O8_34
REMARK    8  A    between atoms: C18_26  and  O7_33
REMARK    9  A    between atoms: C19_28  and  O6_32
REMARK                            x       y       z     vdW  Elec       q    Type
REMARK                         _______ _______ _______ _____ _____    ______ ____
ROOT
ATOM     11  C   UNL     1      51.820  16.501  17.715  0.00  0.00    +0.242 C 
ATOM     12  C   UNL     1      50.715  16.397  18.778  0.00  0.00    -0.023 C 
ATOM     25  C   UNL     1      50.615  14.936  19.179  0.00  0.00    +0.426 C 
ATOM     26  C   UNL     1      50.733  13.950  18.099  0.00  0.00    -0.264 A 
ATOM     27  C   UNL     1      50.404  12.603  18.322  0.00  0.00    +0.220 A 
ATOM     30  C   UNL     1      50.535  11.691  17.290  0.00  0.00    -0.083 A 
ATOM     31  C   UNL     1      50.988  12.108  16.044  0.00  0.00    +0.190 A 
ATOM     34  C   UNL     1      51.310  13.440  15.817  0.00  0.00    -0.062 A 
ATOM     35  C   UNL     1      51.184  14.370  16.835  0.00  0.00    +0.229 A 
ATOM     36  O   UNL     1      50.447  14.602  20.333  0.00  0.00    -0.407 OA
ATOM     37  O   UNL     1      51.488  15.669  16.604  0.00  0.00    -0.285 OA
ENDROOT
BRANCH  11  10
ATOM      1  C   UNL     1      51.645  18.260  15.944  0.00  0.00    +0.052 A 
ATOM      2  C   UNL     1      51.754  19.571  15.515  0.00  0.00    +0.006 A 
ATOM      3  C   UNL     1      52.157  20.557  16.400  0.00  0.00    +0.094 A 
ATOM      6  C   UNL     1      52.453  20.226  17.719  0.00  0.00    +0.084 A 
ATOM      9  C   UNL     1      52.342  18.912  18.142  0.00  0.00    +0.028 A 
ATOM     10  C   UNL     1      51.939  17.932  17.253  0.00  0.00    -0.084 A 
BRANCH   3   4
ATOM      4  O   UNL     1      52.265  21.847  15.980  0.00  0.00    -0.486 OA
ATOM      5  H   UNL     1      52.612  22.451  16.651  0.00  0.00    +0.391 HD
ENDBRANCH   3   4
BRANCH   6   7
ATOM      7  O   UNL     1      52.850  21.191  18.592  0.00  0.00    -0.484 OA
ATOM      8  H   UNL     1      52.890  22.078  18.207  0.00  0.00    +0.390 HD
ENDBRANCH   6   7
ENDBRANCH  11  10
BRANCH  12  13
ATOM     13  C   UNL     1      49.384  16.871  18.193  0.00  0.00    +0.203 C 
ATOM     14  C   UNL     1      48.909  18.115  18.948  0.00  0.00    +0.165 C 
ATOM     17  C   UNL     1      47.546  18.548  18.396  0.00  0.00    +0.152 C 
ATOM     20  C   UNL     1      46.562  17.381  18.523  0.00  0.00    +0.123 C 
ATOM     23  C   UNL     1      47.128  16.165  17.784  0.00  0.00    +0.196 C 
ATOM     24  O   UNL     1      48.409  15.834  18.325  0.00  0.00    -0.343 OA
BRANCH  14  15
ATOM     15  O   UNL     1      48.788  17.813  20.339  0.00  0.00    -0.540 OA
ATOM     16  H   UNL     1      48.016  18.212  20.763  0.00  0.00    +0.387 HD
ENDBRANCH  14  15
BRANCH  17  18
ATOM     18  O   UNL     1      47.062  19.666  19.143  0.00  0.00    -0.560 OA
ATOM     19  H   UNL     1      47.607  20.461  19.058  0.00  0.00    +0.392 HD
ENDBRANCH  17  18
BRANCH  20  21
ATOM     21  O   UNL     1      45.307  17.750  17.947  0.00  0.00    -0.564 OA
ATOM     22  H   UNL     1      45.280  17.675  16.984  0.00  0.00    +0.387 HD
ENDBRANCH  20  21
ENDBRANCH  12  13
BRANCH  27  28
ATOM     28  O   UNL     1      49.960  12.199  19.538  0.00  0.00    -0.476 OA
ATOM     29  H   UNL     1      50.433  12.598  20.282  0.00  0.00    +0.399 HD
ENDBRANCH  27  28
BRANCH  31  32
ATOM     32  O   UNL     1      51.118  11.206  15.040  0.00  0.00    -0.492 OA
ATOM     33  H   UNL     1      50.473  11.316  14.327  0.00  0.00    +0.399 HD
ENDBRANCH  31  32
TORSDOF 9
ENDMDL
MODEL 9
REMARK VINA RESULT:      -5.4      2.758      6.394
REMARK  Name = ZINC95486341
REMARK  9 active torsions:
REMARK  status: ('A' for Active; 'I' for Inactive)
REMARK    1  A    between atoms: C3_3  and  O10_36
REMARK    2  A    between atoms: C4_4  and  O9_35
REMARK    3  A    between atoms: C6_6  and  C7_7
REMARK    4  A    between atoms: C8_9  and  C16_22
REMARK    5  A    between atoms: C11_14  and  O4_21
REMARK    6  A    between atoms: C13_16  and  O3_20
REMARK    7  A    between atoms: C17_24  and  O8_34
REMARK    8  A    between atoms: C18_26  and  O7_33
REMARK    9  A    between atoms: C19_28  and  O6_32
REMARK                            x       y       z     vdW  Elec       q    Type
REMARK                         _______ _______ _______ _____ _____    ______ ____
ROOT
ATOM     11  C   UNL     1      48.983  18.745  18.723  0.00  0.00    +0.242 C 
ATOM     12  C   UNL     1      49.629  17.502  18.092  0.00  0.00    -0.023 C 
ATOM     25  C   UNL     1      48.510  16.523  17.783  0.00  0.00    +0.426 C 
ATOM     26  C   UNL     1      47.446  16.405  18.787  0.00  0.00    -0.264 A 
ATOM     27  C   UNL     1      46.513  15.358  18.720  0.00  0.00    +0.220 A 
ATOM     30  C   UNL     1      45.513  15.277  19.672  0.00  0.00    -0.083 A 
ATOM     31  C   UNL     1      45.436  16.225  20.685  0.00  0.00    +0.190 A 
ATOM     34  C   UNL     1      46.359  17.259  20.759  0.00  0.00    -0.062 A 
ATOM     35  C   UNL     1      47.370  17.358  19.818  0.00  0.00    +0.229 A 
ATOM     36  O   UNL     1      48.497  15.872  16.759  0.00  0.00    -0.407 OA
ATOM     37  O   UNL     1      48.275  18.363  19.902  0.00  0.00    -0.285 OA
ENDROOT
BRANCH  11  10
ATOM      1  C   UNL     1      50.780  20.365  18.085  0.00  0.00    +0.052 A 
ATOM      2  C   UNL     1      51.766  21.280  18.410  0.00  0.00    +0.006 A 
ATOM      3  C   UNL     1      52.029  21.571  19.739  0.00  0.00    +0.094 A 
ATOM      6  C   UNL     1      51.300  20.942  20.743  0.00  0.00    +0.084 A 
ATOM      9  C   UNL     1      50.314  20.027  20.411  0.00  0.00    +0.028 A 
ATOM     10  C   UNL     1      50.056  19.741  19.083  0.00  0.00    -0.084 A 
BRANCH   3   4
ATOM      4  O   UNL     1      52.998  22.469  20.060  0.00  0.00    -0.486 OA
ATOM      5  H   UNL     1      52.725  23.392  19.969  0.00  0.00    +0.391 HD
ENDBRANCH   3   4
BRANCH   6   7
ATOM      7  O   UNL     1      51.555  21.224  22.049  0.00  0.00    -0.484 OA
ATOM      8  H   UNL     1      52.472  21.476  22.226  0.00  0.00    +0.390 HD
ENDBRANCH   6   7
ENDBRANCH  11  10
BRANCH  12  13
ATOM     13  C   UNL     1      50.618  16.873  19.075  0.00  0.00    +0.203 C 
ATOM     14  C   UNL     1      52.044  17.051  18.547  0.00  0.00    +0.165 C 
ATOM     17  C   UNL     1      53.024  16.367  19.506  0.00  0.00    +0.152 C 
ATOM     20  C   UNL     1      52.637  14.891  19.647  0.00  0.00    +0.123 C 
ATOM     23  C   UNL     1      51.188  14.797  20.132  0.00  0.00    +0.196 C 
ATOM     24  O   UNL     1      50.333  15.480  19.212  0.00  0.00    -0.343 OA
BRANCH  14  15
ATOM     15  O   UNL     1      52.152  16.461  17.251  0.00  0.00    -0.540 OA
ATOM     16  H   UNL     1      52.654  15.635  17.235  0.00  0.00    +0.387 HD
ENDBRANCH  14  15
BRANCH  17  18
ATOM     18  O   UNL     1      54.350  16.466  18.984  0.00  0.00    -0.560 OA
ATOM     19  H   UNL     1      54.488  15.972  18.164  0.00  0.00    +0.392 HD
ENDBRANCH  17  18
BRANCH  20  21
ATOM     21  O   UNL     1      53.501  14.259  20.593  0.00  0.00    -0.564 OA
ATOM     22  H   UNL     1      53.035  13.758  21.277  0.00  0.00    +0.387 HD
ENDBRANCH  20  21
ENDBRANCH  12  13
BRANCH  27  28
ATOM     28  O   UNL     1      46.592  14.434  17.732  0.00  0.00    -0.476 OA
ATOM     29  H   UNL     1      47.439  14.428  17.264  0.00  0.00    +0.399 HD
ENDBRANCH  27  28
BRANCH  31  32
ATOM     32  O   UNL     1      44.449  16.140  21.612  0.00  0.00    -0.492 OA
ATOM     33  H   UNL     1      44.589  15.447  22.273  0.00  0.00    +0.399 HD
ENDBRANCH  31  32
TORSDOF 9
ENDMDL
