MODEL 1
REMARK VINA RESULT:      -6.5      0.000      0.000
REMARK  Name = ZINC95485932
REMARK  11 active torsions:
REMARK  status: ('A' for Active; 'I' for Inactive)
REMARK    1  A    between atoms: C1_1  and  C2_2
REMARK    2  A    between atoms: C2_2  and  C3_3
REMARK    3  A    between atoms: C3_3  and  C4_5
REMARK    4  A    between atoms: C3_3  and  C5_6
REMARK    5  A    between atoms: C5_6  and  C6_7
REMARK    6  A    between atoms: C7_8  and  C8_9
REMARK    7  A    between atoms: C8_9  and  C9_11
REMARK    8  A    between atoms: C8_9  and  C10_12
REMARK    9  A    between atoms: C14_18  and  C28_36
REMARK   10  A    between atoms: C22_28  and  C27_35
REMARK   11  A    between atoms: C25_31  and  O1_34
REMARK                            x       y       z     vdW  Elec       q    Type
REMARK                         _______ _______ _______ _____ _____    ______ ____
ROOT
ATOM      8  C   UNL     1      47.821  17.918  18.611  0.00  0.00    +0.012 C 
ATOM      9  C   UNL     1      48.554  19.270  18.737  0.00  0.00    +0.008 C 
ATOM     10  C   UNL     1      48.734  19.532  20.248  0.00  0.00    +0.003 C 
ATOM     11  C   UNL     1      47.597  18.700  20.910  0.00  0.00    +0.002 C 
ATOM     12  C   UNL     1      46.303  19.493  20.715  0.00  0.00    +0.002 C 
ATOM     13  C   UNL     1      46.228  19.996  19.270  0.00  0.00    +0.069 C 
ATOM     14  C   UNL     1      44.916  20.698  19.065  0.00  0.00    -0.058 C 
ATOM     15  C   UNL     1      43.852  20.437  19.766  0.00  0.00    -0.109 C 
ATOM     16  C   UNL     1      43.805  19.406  20.829  0.00  0.00    -0.013 C 
ATOM     17  C   UNL     1      43.560  20.148  22.145  0.00  0.00    +0.021 C 
ATOM     18  C   UNL     1      42.616  18.470  20.594  0.00  0.00    +0.036 C 
ATOM     19  C   UNL     1      41.341  19.299  20.430  0.00  0.00    +0.021 C 
ATOM     20  C   UNL     1      41.461  20.190  19.194  0.00  0.00    +0.168 C 
ATOM     23  C   UNL     1      42.581  21.211  19.461  0.00  0.00    +0.031 C 
ATOM     24  C   UNL     1      45.085  18.600  20.966  0.00  0.00    +0.006 C 
ATOM     25  C   UNL     1      45.090  17.452  19.952  0.00  0.00    +0.014 C 
ATOM     26  C   UNL     1      46.339  16.603  20.192  0.00  0.00    +0.015 C 
ATOM     27  C   UNL     1      47.600  17.424  20.047  0.00  0.00    -0.046 C 
ATOM     28  C   UNL     1      48.787  16.550  20.458  0.00  0.00    +0.017 C 
ENDROOT
BRANCH   8   7
ATOM      7  C   UNL     1      48.684  16.920  17.837  0.00  0.00    +0.019 C 
ATOM     29  C   UNL     1      47.780  15.951  17.074  0.00  0.00    +0.020 C 
BRANCH   7   6
ATOM      5  C   UNL     1      50.864  17.592  16.966  0.00  0.00    -0.051 C 
ATOM      6  C   UNL     1      49.561  17.665  16.862  0.00  0.00    -0.043 C 
BRANCH   5   4
ATOM      4  C   UNL     1      51.740  18.336  15.991  0.00  0.00    +0.045 C 
BRANCH   4   3
ATOM      3  C   UNL     1      52.397  19.524  16.698  0.00  0.00    -0.018 C 
ATOM     30  C   UNL     1      52.534  19.215  18.190  0.00  0.00    +0.015 C 
BRANCH   3   2
ATOM      1  C   UNL     1      51.128  21.321  17.882  0.00  0.00    +0.007 C 
ATOM      2  C   UNL     1      51.531  20.770  16.512  0.00  0.00    -0.000 C 
ENDBRANCH   3   2
ENDBRANCH   4   3
ENDBRANCH   5   4
ENDBRANCH   7   6
ENDBRANCH   8   7
BRANCH  20  21
ATOM     21  O   UNL     1      40.235  20.897  18.995  0.00  0.00    -0.571 OA
ATOM     22  H   UNL     1      40.123  21.245  18.100  0.00  0.00    +0.378 HD
ENDBRANCH  20  21
TORSDOF 6
ENDMDL
MODEL 2
REMARK VINA RESULT:      -6.3      2.810      7.378
REMARK  Name = ZINC95485932
REMARK  11 active torsions:
REMARK  status: ('A' for Active; 'I' for Inactive)
REMARK    1  A    between atoms: C1_1  and  C2_2
REMARK    2  A    between atoms: C2_2  and  C3_3
REMARK    3  A    between atoms: C3_3  and  C4_5
REMARK    4  A    between atoms: C3_3  and  C5_6
REMARK    5  A    between atoms: C5_6  and  C6_7
REMARK    6  A    between atoms: C7_8  and  C8_9
REMARK    7  A    between atoms: C8_9  and  C9_11
REMARK    8  A    between atoms: C8_9  and  C10_12
REMARK    9  A    between atoms: C14_18  and  C28_36
REMARK   10  A    between atoms: C22_28  and  C27_35
REMARK   11  A    between atoms: C25_31  and  O1_34
REMARK                            x       y       z     vdW  Elec       q    Type
REMARK                         _______ _______ _______ _____ _____    ______ ____
ROOT
ATOM      8  C   UNL     1      47.004  16.371  19.678  0.00  0.00    +0.012 C 
ATOM      9  C   UNL     1      45.954  17.225  18.937  0.00  0.00    +0.008 C 
ATOM     10  C   UNL     1      46.159  16.959  17.430  0.00  0.00    +0.003 C 
ATOM     11  C   UNL     1      47.644  16.501  17.330  0.00  0.00    +0.002 C 
ATOM     12  C   UNL     1      48.501  17.764  17.436  0.00  0.00    +0.002 C 
ATOM     13  C   UNL     1      47.979  18.637  18.582  0.00  0.00    +0.069 C 
ATOM     14  C   UNL     1      48.878  19.831  18.734  0.00  0.00    -0.058 C 
ATOM     15  C   UNL     1      50.128  19.830  18.374  0.00  0.00    -0.109 C 
ATOM     16  C   UNL     1      50.813  18.652  17.794  0.00  0.00    -0.013 C 
ATOM     17  C   UNL     1      51.191  19.029  16.360  0.00  0.00    +0.021 C 
ATOM     18  C   UNL     1      52.109  18.374  18.560  0.00  0.00    +0.036 C 
ATOM     19  C   UNL     1      52.947  19.652  18.622  0.00  0.00    +0.021 C 
ATOM     20  C   UNL     1      52.189  20.728  19.399  0.00  0.00    +0.168 C 
ATOM     23  C   UNL     1      50.937  21.099  18.584  0.00  0.00    +0.031 C 
ATOM     24  C   UNL     1      49.955  17.399  17.747  0.00  0.00    +0.006 C 
ATOM     25  C   UNL     1      50.010  16.678  19.098  0.00  0.00    +0.014 C 
ATOM     26  C   UNL     1      49.225  15.371  18.978  0.00  0.00    +0.015 C 
ATOM     27  C   UNL     1      47.787  15.626  18.590  0.00  0.00    -0.046 C 
ATOM     28  C   UNL     1      47.116  14.275  18.333  0.00  0.00    +0.017 C 
ENDROOT
BRANCH   8   7
ATOM      7  C   UNL     1      46.311  15.371  20.607  0.00  0.00    +0.019 C 
ATOM     29  C   UNL     1      47.086  15.276  21.922  0.00  0.00    +0.020 C 
BRANCH   7   6
ATOM      5  C   UNL     1      44.636  16.491  21.987  0.00  0.00    -0.051 C 
ATOM      6  C   UNL     1      44.904  15.836  20.884  0.00  0.00    -0.043 C 
BRANCH   5   4
ATOM      4  C   UNL     1      43.229  16.956  22.263  0.00  0.00    +0.045 C 
BRANCH   4   3
ATOM      3  C   UNL     1      43.156  18.477  22.115  0.00  0.00    -0.018 C 
ATOM     30  C   UNL     1      42.656  18.829  20.713  0.00  0.00    +0.015 C 
BRANCH   3   2
ATOM      1  C   UNL     1      44.858  20.056  21.193  0.00  0.00    +0.007 C 
ATOM      2  C   UNL     1      44.547  19.077  22.327  0.00  0.00    -0.000 C 
ENDBRANCH   3   2
ENDBRANCH   4   3
ENDBRANCH   5   4
ENDBRANCH   7   6
ENDBRANCH   8   7
BRANCH  20  21
ATOM     21  O   UNL     1      53.011  21.890  19.530  0.00  0.00    -0.571 OA
ATOM     22  H   UNL     1      52.927  22.515  18.797  0.00  0.00    +0.378 HD
ENDBRANCH  20  21
TORSDOF 6
ENDMDL
MODEL 3
REMARK VINA RESULT:      -6.3      2.819      7.483
REMARK  Name = ZINC95485932
REMARK  11 active torsions:
REMARK  status: ('A' for Active; 'I' for Inactive)
REMARK    1  A    between atoms: C1_1  and  C2_2
REMARK    2  A    between atoms: C2_2  and  C3_3
REMARK    3  A    between atoms: C3_3  and  C4_5
REMARK    4  A    between atoms: C3_3  and  C5_6
REMARK    5  A    between atoms: C5_6  and  C6_7
REMARK    6  A    between atoms: C7_8  and  C8_9
REMARK    7  A    between atoms: C8_9  and  C9_11
REMARK    8  A    between atoms: C8_9  and  C10_12
REMARK    9  A    between atoms: C14_18  and  C28_36
REMARK   10  A    between atoms: C22_28  and  C27_35
REMARK   11  A    between atoms: C25_31  and  O1_34
REMARK                            x       y       z     vdW  Elec       q    Type
REMARK                         _______ _______ _______ _____ _____    ______ ____
ROOT
ATOM      8  C   UNL     1      46.127  18.073  20.084  0.00  0.00    +0.012 C 
ATOM      9  C   UNL     1      45.732  18.394  18.627  0.00  0.00    +0.008 C 
ATOM     10  C   UNL     1      46.442  17.348  17.740  0.00  0.00    +0.003 C 
ATOM     11  C   UNL     1      47.661  16.897  18.597  0.00  0.00    +0.002 C 
ATOM     12  C   UNL     1      48.709  18.006  18.489  0.00  0.00    +0.002 C 
ATOM     13  C   UNL     1      48.028  19.367  18.669  0.00  0.00    +0.069 C 
ATOM     14  C   UNL     1      49.076  20.443  18.648  0.00  0.00    -0.058 C 
ATOM     15  C   UNL     1      50.315  20.236  18.983  0.00  0.00    -0.109 C 
ATOM     16  C   UNL     1      50.831  18.926  19.444  0.00  0.00    -0.013 C 
ATOM     17  C   UNL     1      51.837  18.458  18.389  0.00  0.00    +0.021 C 
ATOM     18  C   UNL     1      51.588  19.099  20.764  0.00  0.00    +0.036 C 
ATOM     19  C   UNL     1      52.641  20.197  20.607  0.00  0.00    +0.021 C 
ATOM     20  C   UNL     1      51.954  21.529  20.305  0.00  0.00    +0.168 C 
ATOM     23  C   UNL     1      51.281  21.407  18.926  0.00  0.00    +0.031 C 
ATOM     24  C   UNL     1      49.762  17.858  19.591  0.00  0.00    +0.006 C 
ATOM     25  C   UNL     1      49.077  17.988  20.956  0.00  0.00    +0.014 C 
ATOM     26  C   UNL     1      48.086  16.834  21.109  0.00  0.00    +0.015 C 
ATOM     27  C   UNL     1      47.049  16.849  20.010  0.00  0.00    -0.046 C 
ATOM     28  C   UNL     1      46.200  15.581  20.140  0.00  0.00    +0.017 C 
ENDROOT
BRANCH   8   7
ATOM      7  C   UNL     1      44.881  17.746  20.909  0.00  0.00    +0.019 C 
ATOM     29  C   UNL     1      44.982  18.428  22.275  0.00  0.00    +0.020 C 
BRANCH   7   6
ATOM      5  C   UNL     1      43.013  19.295  20.636  0.00  0.00    -0.051 C 
ATOM      6  C   UNL     1      43.656  18.246  20.187  0.00  0.00    -0.043 C 
BRANCH   5   4
ATOM      4  C   UNL     1      41.788  19.794  19.913  0.00  0.00    +0.045 C 
BRANCH   4   3
ATOM      3  C   UNL     1      42.192  20.883  18.917  0.00  0.00    -0.018 C 
ATOM     30  C   UNL     1      43.417  21.630  19.448  0.00  0.00    +0.015 C 
BRANCH   3   2
ATOM      1  C   UNL     1      39.785  21.104  18.285  0.00  0.00    +0.007 C 
ATOM      2  C   UNL     1      41.033  21.865  18.739  0.00  0.00    -0.000 C 
ENDBRANCH   3   2
ENDBRANCH   4   3
ENDBRANCH   5   4
ENDBRANCH   7   6
ENDBRANCH   8   7
BRANCH  20  21
ATOM     21  O   UNL     1      52.935  22.568  20.246  0.00  0.00    -0.571 OA
ATOM     22  H   UNL     1      52.686  23.311  19.680  0.00  0.00    +0.378 HD
ENDBRANCH  20  21
TORSDOF 6
ENDMDL
MODEL 4
REMARK VINA RESULT:      -6.0      1.766      2.305
REMARK  Name = ZINC95485932
REMARK  11 active torsions:
REMARK  status: ('A' for Active; 'I' for Inactive)
REMARK    1  A    between atoms: C1_1  and  C2_2
REMARK    2  A    between atoms: C2_2  and  C3_3
REMARK    3  A    between atoms: C3_3  and  C4_5
REMARK    4  A    between atoms: C3_3  and  C5_6
REMARK    5  A    between atoms: C5_6  and  C6_7
REMARK    6  A    between atoms: C7_8  and  C8_9
REMARK    7  A    between atoms: C8_9  and  C9_11
REMARK    8  A    between atoms: C8_9  and  C10_12
REMARK    9  A    between atoms: C14_18  and  C28_36
REMARK   10  A    between atoms: C22_28  and  C27_35
REMARK   11  A    between atoms: C25_31  and  O1_34
REMARK                            x       y       z     vdW  Elec       q    Type
REMARK                         _______ _______ _______ _____ _____    ______ ____
ROOT
ATOM      8  C   UNL     1      47.982  17.708  19.048  0.00  0.00    +0.012 C 
ATOM      9  C   UNL     1      49.080  17.991  20.095  0.00  0.00    +0.008 C 
ATOM     10  C   UNL     1      48.480  17.622  21.469  0.00  0.00    +0.003 C 
ATOM     11  C   UNL     1      46.944  17.753  21.254  0.00  0.00    +0.002 C 
ATOM     12  C   UNL     1      46.623  19.249  21.282  0.00  0.00    +0.002 C 
ATOM     13  C   UNL     1      47.646  20.004  20.427  0.00  0.00    +0.069 C 
ATOM     14  C   UNL     1      47.273  21.459  20.390  0.00  0.00    -0.058 C 
ATOM     15  C   UNL     1      46.055  21.885  20.555  0.00  0.00    -0.109 C 
ATOM     16  C   UNL     1      44.896  20.988  20.775  0.00  0.00    -0.013 C 
ATOM     17  C   UNL     1      44.378  21.284  22.184  0.00  0.00    +0.021 C 
ATOM     18  C   UNL     1      43.778  21.329  19.786  0.00  0.00    +0.036 C 
ATOM     19  C   UNL     1      43.470  22.825  19.863  0.00  0.00    +0.021 C 
ATOM     20  C   UNL     1      44.702  23.627  19.441  0.00  0.00    +0.168 C 
ATOM     23  C   UNL     1      45.802  23.381  20.490  0.00  0.00    +0.031 C 
ATOM     24  C   UNL     1      45.234  19.509  20.692  0.00  0.00    +0.006 C 
ATOM     25  C   UNL     1      45.220  19.052  19.229  0.00  0.00    +0.014 C 
ATOM     26  C   UNL     1      45.457  17.542  19.195  0.00  0.00    +0.015 C 
ATOM     27  C   UNL     1      46.777  17.177  19.835  0.00  0.00    -0.046 C 
ATOM     28  C   UNL     1      46.865  15.651  19.906  0.00  0.00    +0.017 C 
ENDROOT
BRANCH   8   7
ATOM      7  C   UNL     1      48.465  16.655  18.048  0.00  0.00    +0.019 C 
ATOM     29  C   UNL     1      47.596  16.711  16.791  0.00  0.00    +0.020 C 
BRANCH   7   6
ATOM      5  C   UNL     1      50.194  17.940  16.899  0.00  0.00    -0.051 C 
ATOM      6  C   UNL     1      49.900  16.932  17.681  0.00  0.00    -0.043 C 
BRANCH   5   4
ATOM      4  C   UNL     1      51.629  18.217  16.533  0.00  0.00    +0.045 C 
BRANCH   4   3
ATOM      3  C   UNL     1      52.089  19.508  17.214  0.00  0.00    -0.018 C 
ATOM     30  C   UNL     1      52.676  19.178  18.587  0.00  0.00    +0.015 C 
BRANCH   3   2
ATOM      1  C   UNL     1      50.915  21.051  18.788  0.00  0.00    +0.007 C 
ATOM      2  C   UNL     1      50.896  20.449  17.381  0.00  0.00    -0.000 C 
ENDBRANCH   3   2
ENDBRANCH   4   3
ENDBRANCH   5   4
ENDBRANCH   7   6
ENDBRANCH   8   7
BRANCH  20  21
ATOM     21  O   UNL     1      44.383  25.020  19.430  0.00  0.00    -0.571 OA
ATOM     22  H   UNL     1      43.454  25.209  19.243  0.00  0.00    +0.378 HD
ENDBRANCH  20  21
TORSDOF 6
ENDMDL
MODEL 5
REMARK VINA RESULT:      -5.9      4.588      7.237
REMARK  Name = ZINC95485932
REMARK  11 active torsions:
REMARK  status: ('A' for Active; 'I' for Inactive)
REMARK    1  A    between atoms: C1_1  and  C2_2
REMARK    2  A    between atoms: C2_2  and  C3_3
REMARK    3  A    between atoms: C3_3  and  C4_5
REMARK    4  A    between atoms: C3_3  and  C5_6
REMARK    5  A    between atoms: C5_6  and  C6_7
REMARK    6  A    between atoms: C7_8  and  C8_9
REMARK    7  A    between atoms: C8_9  and  C9_11
REMARK    8  A    between atoms: C8_9  and  C10_12
REMARK    9  A    between atoms: C14_18  and  C28_36
REMARK   10  A    between atoms: C22_28  and  C27_35
REMARK   11  A    between atoms: C25_31  and  O1_34
REMARK                            x       y       z     vdW  Elec       q    Type
REMARK                         _______ _______ _______ _____ _____    ______ ____
ROOT
ATOM      8  C   UNL     1      49.149  14.524  17.675  0.00  0.00    +0.012 C 
ATOM      9  C   UNL     1      50.496  13.796  17.487  0.00  0.00    +0.008 C 
ATOM     10  C   UNL     1      51.234  13.883  18.840  0.00  0.00    +0.003 C 
ATOM     11  C   UNL     1      50.617  15.139  19.522  0.00  0.00    +0.002 C 
ATOM     12  C   UNL     1      51.259  16.359  18.857  0.00  0.00    +0.002 C 
ATOM     13  C   UNL     1      51.269  16.162  17.337  0.00  0.00    +0.069 C 
ATOM     14  C   UNL     1      51.820  17.399  16.688  0.00  0.00    -0.058 C 
ATOM     15  C   UNL     1      51.759  18.578  17.236  0.00  0.00    -0.109 C 
ATOM     16  C   UNL     1      51.122  18.838  18.548  0.00  0.00    -0.013 C 
ATOM     17  C   UNL     1      52.236  19.298  19.490  0.00  0.00    +0.021 C 
ATOM     18  C   UNL     1      50.117  19.987  18.420  0.00  0.00    +0.036 C 
ATOM     19  C   UNL     1      50.802  21.193  17.774  0.00  0.00    +0.021 C 
ATOM     20  C   UNL     1      51.254  20.832  16.359  0.00  0.00    +0.168 C 
ATOM     23  C   UNL     1      52.348  19.755  16.478  0.00  0.00    +0.031 C 
ATOM     24  C   UNL     1      50.449  17.623  19.161  0.00  0.00    +0.006 C 
ATOM     25  C   UNL     1      49.037  17.461  18.588  0.00  0.00    +0.014 C 
ATOM     26  C   UNL     1      48.357  16.296  19.305  0.00  0.00    +0.015 C 
ATOM     27  C   UNL     1      49.133  15.011  19.130  0.00  0.00    -0.046 C 
ATOM     28  C   UNL     1      48.481  13.937  20.004  0.00  0.00    +0.017 C 
ENDROOT
BRANCH   8   7
ATOM      7  C   UNL     1      47.988  13.559  17.428  0.00  0.00    +0.019 C 
ATOM     29  C   UNL     1      46.936  14.242  16.552  0.00  0.00    +0.020 C 
BRANCH   7   6
ATOM      5  C   UNL     1      48.461  12.246  15.424  0.00  0.00    -0.051 C 
ATOM      6  C   UNL     1      48.500  12.325  16.731  0.00  0.00    -0.043 C 
BRANCH   5   4
ATOM      4  C   UNL     1      48.974  11.012  14.728  0.00  0.00    +0.045 C 
BRANCH   4   3
ATOM      3  C   UNL     1      50.332  11.313  14.092  0.00  0.00    -0.018 C 
ATOM     30  C   UNL     1      51.445  10.998  15.093  0.00  0.00    +0.015 C 
BRANCH   3   2
ATOM      1  C   UNL     1      51.780  13.349  14.053  0.00  0.00    +0.007 C 
ATOM      2  C   UNL     1      50.398  12.791  13.705  0.00  0.00    -0.000 C 
ENDBRANCH   3   2
ENDBRANCH   4   3
ENDBRANCH   5   4
ENDBRANCH   7   6
ENDBRANCH   8   7
BRANCH  20  21
ATOM     21  O   UNL     1      51.816  21.986  15.730  0.00  0.00    -0.571 OA
ATOM     22  H   UNL     1      51.577  22.080  14.797  0.00  0.00    +0.378 HD
ENDBRANCH  20  21
TORSDOF 6
ENDMDL
MODEL 6
REMARK VINA RESULT:      -5.8      2.753      5.248
REMARK  Name = ZINC95485932
REMARK  11 active torsions:
REMARK  status: ('A' for Active; 'I' for Inactive)
REMARK    1  A    between atoms: C1_1  and  C2_2
REMARK    2  A    between atoms: C2_2  and  C3_3
REMARK    3  A    between atoms: C3_3  and  C4_5
REMARK    4  A    between atoms: C3_3  and  C5_6
REMARK    5  A    between atoms: C5_6  and  C6_7
REMARK    6  A    between atoms: C7_8  and  C8_9
REMARK    7  A    between atoms: C8_9  and  C9_11
REMARK    8  A    between atoms: C8_9  and  C10_12
REMARK    9  A    between atoms: C14_18  and  C28_36
REMARK   10  A    between atoms: C22_28  and  C27_35
REMARK   11  A    between atoms: C25_31  and  O1_34
REMARK                            x       y       z     vdW  Elec       q    Type
REMARK                         _______ _______ _______ _____ _____    ______ ____
ROOT
ATOM      8  C   UNL     1      46.529  15.312  18.757  0.00  0.00    +0.012 C 
ATOM      9  C   UNL     1      46.744  15.571  17.251  0.00  0.00    +0.008 C 
ATOM     10  C   UNL     1      48.178  16.124  17.102  0.00  0.00    +0.003 C 
ATOM     11  C   UNL     1      48.487  16.742  18.497  0.00  0.00    +0.002 C 
ATOM     12  C   UNL     1      47.752  18.083  18.556  0.00  0.00    +0.002 C 
ATOM     13  C   UNL     1      46.325  17.904  18.027  0.00  0.00    +0.069 C 
ATOM     14  C   UNL     1      45.585  19.203  18.170  0.00  0.00    -0.058 C 
ATOM     15  C   UNL     1      45.889  20.100  19.061  0.00  0.00    -0.109 C 
ATOM     16  C   UNL     1      46.981  19.937  20.048  0.00  0.00    -0.013 C 
ATOM     17  C   UNL     1      48.026  21.008  19.725  0.00  0.00    +0.021 C 
ATOM     18  C   UNL     1      46.453  20.213  21.459  0.00  0.00    +0.036 C 
ATOM     19  C   UNL     1      45.749  21.571  21.482  0.00  0.00    +0.021 C 
ATOM     20  C   UNL     1      44.539  21.540  20.548  0.00  0.00    +0.168 C 
ATOM     23  C   UNL     1      45.062  21.374  19.109  0.00  0.00    +0.031 C 
ATOM     24  C   UNL     1      47.659  18.579  20.002  0.00  0.00    +0.006 C 
ATOM     25  C   UNL     1      46.858  17.566  20.826  0.00  0.00    +0.014 C 
ATOM     26  C   UNL     1      47.626  16.244  20.843  0.00  0.00    +0.015 C 
ATOM     27  C   UNL     1      47.841  15.714  19.445  0.00  0.00    -0.046 C 
ATOM     28  C   UNL     1      48.749  14.485  19.536  0.00  0.00    +0.017 C 
ENDROOT
BRANCH   8   7
ATOM      7  C   UNL     1      46.238  13.830  19.002  0.00  0.00    +0.019 C 
ATOM     29  C   UNL     1      45.045  13.697  19.949  0.00  0.00    +0.020 C 
BRANCH   7   6
ATOM      5  C   UNL     1      46.359  11.950  17.448  0.00  0.00    -0.051 C 
ATOM      6  C   UNL     1      45.917  13.159  17.691  0.00  0.00    -0.043 C 
BRANCH   5   4
ATOM      4  C   UNL     1      46.037  11.279  16.138  0.00  0.00    +0.045 C 
BRANCH   4   3
ATOM      3  C   UNL     1      47.334  11.010  15.371  0.00  0.00    -0.018 C 
ATOM     30  C   UNL     1      48.470  10.757  16.363  0.00  0.00    +0.015 C 
BRANCH   3   2
ATOM      1  C   UNL     1      48.920  12.915  15.061  0.00  0.00    +0.007 C 
ATOM      2  C   UNL     1      47.673  12.223  14.504  0.00  0.00    -0.000 C 
ENDBRANCH   3   2
ENDBRANCH   4   3
ENDBRANCH   5   4
ENDBRANCH   7   6
ENDBRANCH   8   7
BRANCH  20  21
ATOM     21  O   UNL     1      43.834  22.780  20.638  0.00  0.00    -0.571 OA
ATOM     22  H   UNL     1      43.612  23.169  19.782  0.00  0.00    +0.378 HD
ENDBRANCH  20  21
TORSDOF 6
ENDMDL
MODEL 7
REMARK VINA RESULT:      -5.6      3.822      7.534
REMARK  Name = ZINC95485932
REMARK  11 active torsions:
REMARK  status: ('A' for Active; 'I' for Inactive)
REMARK    1  A    between atoms: C1_1  and  C2_2
REMARK    2  A    between atoms: C2_2  and  C3_3
REMARK    3  A    between atoms: C3_3  and  C4_5
REMARK    4  A    between atoms: C3_3  and  C5_6
REMARK    5  A    between atoms: C5_6  and  C6_7
REMARK    6  A    between atoms: C7_8  and  C8_9
REMARK    7  A    between atoms: C8_9  and  C9_11
REMARK    8  A    between atoms: C8_9  and  C10_12
REMARK    9  A    between atoms: C14_18  and  C28_36
REMARK   10  A    between atoms: C22_28  and  C27_35
REMARK   11  A    between atoms: C25_31  and  O1_34
REMARK                            x       y       z     vdW  Elec       q    Type
REMARK                         _______ _______ _______ _____ _____    ______ ____
ROOT
ATOM      8  C   UNL     1      47.955  15.371  18.596  0.00  0.00    +0.012 C 
ATOM      9  C   UNL     1      48.750  14.328  17.784  0.00  0.00    +0.008 C 
ATOM     10  C   UNL     1      49.986  13.961  18.633  0.00  0.00    +0.003 C 
ATOM     11  C   UNL     1      50.193  15.204  19.548  0.00  0.00    +0.002 C 
ATOM     12  C   UNL     1      50.848  16.282  18.682  0.00  0.00    +0.002 C 
ATOM     13  C   UNL     1      50.126  16.358  17.333  0.00  0.00    +0.069 C 
ATOM     14  C   UNL     1      50.720  17.477  16.525  0.00  0.00    -0.058 C 
ATOM     15  C   UNL     1      51.305  18.508  17.059  0.00  0.00    -0.109 C 
ATOM     16  C   UNL     1      51.434  18.709  18.521  0.00  0.00    -0.013 C 
ATOM     17  C   UNL     1      52.930  18.656  18.838  0.00  0.00    +0.021 C 
ATOM     18  C   UNL     1      50.927  20.103  18.902  0.00  0.00    +0.036 C 
ATOM     19  C   UNL     1      51.623  21.152  18.033  0.00  0.00    +0.021 C 
ATOM     20  C   UNL     1      51.261  20.929  16.565  0.00  0.00    +0.168 C 
ATOM     23  C   UNL     1      51.861  19.578  16.135  0.00  0.00    +0.031 C 
ATOM     24  C   UNL     1      50.732  17.653  19.356  0.00  0.00    +0.006 C 
ATOM     25  C   UNL     1      49.249  18.009  19.510  0.00  0.00    +0.014 C 
ATOM     26  C   UNL     1      48.603  16.983  20.441  0.00  0.00    +0.015 C 
ATOM     27  C   UNL     1      48.741  15.580  19.897  0.00  0.00    -0.046 C 
ATOM     28  C   UNL     1      48.217  14.606  20.955  0.00  0.00    +0.017 C 
ENDROOT
BRANCH   8   7
ATOM      7  C   UNL     1      46.553  14.841  18.906  0.00  0.00    +0.019 C 
ATOM     29  C   UNL     1      45.592  16.017  19.082  0.00  0.00    +0.020 C 
BRANCH   7   6
ATOM      5  C   UNL     1      45.844  12.700  17.970  0.00  0.00    -0.051 C 
ATOM      6  C   UNL     1      46.082  13.972  17.768  0.00  0.00    -0.043 C 
BRANCH   5   4
ATOM      4  C   UNL     1      45.372  11.831  16.833  0.00  0.00    +0.045 C 
BRANCH   4   3
ATOM      3  C   UNL     1      46.516  10.923  16.376  0.00  0.00    -0.018 C 
ATOM     30  C   UNL     1      47.505  10.731  17.527  0.00  0.00    +0.015 C 
BRANCH   3   2
ATOM      1  C   UNL     1      48.742  11.345  15.323  0.00  0.00    +0.007 C 
ATOM      2  C   UNL     1      47.234  11.566  15.188  0.00  0.00    -0.000 C 
ENDBRANCH   3   2
ENDBRANCH   4   3
ENDBRANCH   5   4
ENDBRANCH   7   6
ENDBRANCH   8   7
BRANCH  20  21
ATOM     21  O   UNL     1      51.842  21.962  15.767  0.00  0.00    -0.571 OA
ATOM     22  H   UNL     1      51.380  22.123  14.934  0.00  0.00    +0.378 HD
ENDBRANCH  20  21
TORSDOF 6
ENDMDL
MODEL 8
REMARK VINA RESULT:      -5.6      2.802      4.434
REMARK  Name = ZINC95485932
REMARK  11 active torsions:
REMARK  status: ('A' for Active; 'I' for Inactive)
REMARK    1  A    between atoms: C1_1  and  C2_2
REMARK    2  A    between atoms: C2_2  and  C3_3
REMARK    3  A    between atoms: C3_3  and  C4_5
REMARK    4  A    between atoms: C3_3  and  C5_6
REMARK    5  A    between atoms: C5_6  and  C6_7
REMARK    6  A    between atoms: C7_8  and  C8_9
REMARK    7  A    between atoms: C8_9  and  C9_11
REMARK    8  A    between atoms: C8_9  and  C10_12
REMARK    9  A    between atoms: C14_18  and  C28_36
REMARK   10  A    between atoms: C22_28  and  C27_35
REMARK   11  A    between atoms: C25_31  and  O1_34
REMARK                            x       y       z     vdW  Elec       q    Type
REMARK                         _______ _______ _______ _____ _____    ______ ____
ROOT
ATOM      8  C   UNL     1      46.679  14.453  17.983  0.00  0.00    +0.012 C 
ATOM      9  C   UNL     1      47.761  15.218  17.193  0.00  0.00    +0.008 C 
ATOM     10  C   UNL     1      48.791  15.716  18.230  0.00  0.00    +0.003 C 
ATOM     11  C   UNL     1      47.982  15.781  19.559  0.00  0.00    +0.002 C 
ATOM     12  C   UNL     1      47.128  17.049  19.490  0.00  0.00    +0.002 C 
ATOM     13  C   UNL     1      46.465  17.141  18.111  0.00  0.00    +0.069 C 
ATOM     14  C   UNL     1      45.562  18.341  18.083  0.00  0.00    -0.058 C 
ATOM     15  C   UNL     1      45.018  18.847  19.151  0.00  0.00    -0.109 C 
ATOM     16  C   UNL     1      45.209  18.289  20.510  0.00  0.00    -0.013 C 
ATOM     17  C   UNL     1      45.960  19.351  21.316  0.00  0.00    +0.021 C 
ATOM     18  C   UNL     1      43.848  18.072  21.179  0.00  0.00    +0.036 C 
ATOM     19  C   UNL     1      43.037  19.367  21.112  0.00  0.00    +0.021 C 
ATOM     20  C   UNL     1      42.766  19.730  19.652  0.00  0.00    +0.168 C 
ATOM     23  C   UNL     1      44.117  20.060  18.993  0.00  0.00    +0.031 C 
ATOM     24  C   UNL     1      46.017  17.004  20.543  0.00  0.00    +0.006 C 
ATOM     25  C   UNL     1      45.106  15.806  20.256  0.00  0.00    +0.014 C 
ATOM     26  C   UNL     1      45.931  14.527  20.404  0.00  0.00    +0.015 C 
ATOM     27  C   UNL     1      47.107  14.517  19.455  0.00  0.00    -0.046 C 
ATOM     28  C   UNL     1      47.967  13.292  19.775  0.00  0.00    +0.017 C 
ENDROOT
BRANCH   8   7
ATOM      7  C   UNL     1      46.615  12.997  17.516  0.00  0.00    +0.019 C 
ATOM     29  C   UNL     1      45.152  12.574  17.370  0.00  0.00    +0.020 C 
BRANCH   7   6
ATOM      5  C   UNL     1      48.055  11.817  15.937  0.00  0.00    -0.051 C 
ATOM      6  C   UNL     1      47.312  12.866  16.186  0.00  0.00    -0.043 C 
BRANCH   5   4
ATOM      4  C   UNL     1      48.751  11.685  14.607  0.00  0.00    +0.045 C 
BRANCH   4   3
ATOM      3  C   UNL     1      49.756  12.828  14.442  0.00  0.00    -0.018 C 
ATOM     30  C   UNL     1      50.200  12.909  12.980  0.00  0.00    +0.015 C 
BRANCH   3   2
ATOM      1  C   UNL     1      51.184  13.761  16.267  0.00  0.00    +0.007 C 
ATOM      2  C   UNL     1      50.973  12.568  15.331  0.00  0.00    -0.000 C 
ENDBRANCH   3   2
ENDBRANCH   4   3
ENDBRANCH   5   4
ENDBRANCH   7   6
ENDBRANCH   8   7
BRANCH  20  21
ATOM     21  O   UNL     1      41.934  20.891  19.595  0.00  0.00    -0.571 OA
ATOM     22  H   UNL     1      41.548  21.057  18.725  0.00  0.00    +0.378 HD
ENDBRANCH  20  21
TORSDOF 6
ENDMDL
MODEL 9
REMARK VINA RESULT:      -5.4      3.457      7.481
REMARK  Name = ZINC95485932
REMARK  11 active torsions:
REMARK  status: ('A' for Active; 'I' for Inactive)
REMARK    1  A    between atoms: C1_1  and  C2_2
REMARK    2  A    between atoms: C2_2  and  C3_3
REMARK    3  A    between atoms: C3_3  and  C4_5
REMARK    4  A    between atoms: C3_3  and  C5_6
REMARK    5  A    between atoms: C5_6  and  C6_7
REMARK    6  A    between atoms: C7_8  and  C8_9
REMARK    7  A    between atoms: C8_9  and  C9_11
REMARK    8  A    between atoms: C8_9  and  C10_12
REMARK    9  A    between atoms: C14_18  and  C28_36
REMARK   10  A    between atoms: C22_28  and  C27_35
REMARK   11  A    between atoms: C25_31  and  O1_34
REMARK                            x       y       z     vdW  Elec       q    Type
REMARK                         _______ _______ _______ _____ _____    ______ ____
ROOT
ATOM      8  C   UNL     1      47.532  17.638  18.788  0.00  0.00    +0.012 C 
ATOM      9  C   UNL     1      46.021  17.648  18.476  0.00  0.00    +0.008 C 
ATOM     10  C   UNL     1      45.365  16.648  19.453  0.00  0.00    +0.003 C 
ATOM     11  C   UNL     1      46.523  15.677  19.826  0.00  0.00    +0.002 C 
ATOM     12  C   UNL     1      46.696  14.724  18.641  0.00  0.00    +0.002 C 
ATOM     13  C   UNL     1      46.677  15.528  17.337  0.00  0.00    +0.069 C 
ATOM     14  C   UNL     1      46.933  14.598  16.186  0.00  0.00    -0.058 C 
ATOM     15  C   UNL     1      47.592  13.483  16.306  0.00  0.00    -0.109 C 
ATOM     16  C   UNL     1      48.183  13.014  17.581  0.00  0.00    -0.013 C 
ATOM     17  C   UNL     1      47.443  11.729  17.959  0.00  0.00    +0.021 C 
ATOM     18  C   UNL     1      49.658  12.658  17.372  0.00  0.00    +0.036 C 
ATOM     19  C   UNL     1      49.784  11.687  16.197  0.00  0.00    +0.021 C 
ATOM     20  C   UNL     1      49.300  12.364  14.915  0.00  0.00    +0.168 C 
ATOM     23  C   UNL     1      47.791  12.628  15.066  0.00  0.00    +0.031 C 
ATOM     24  C   UNL     1      48.042  14.000  18.728  0.00  0.00    +0.006 C 
ATOM     25  C   UNL     1      49.170  15.036  18.668  0.00  0.00    +0.014 C 
ATOM     26  C   UNL     1      49.057  15.942  19.894  0.00  0.00    +0.015 C 
ATOM     27  C   UNL     1      47.718  16.642  19.940  0.00  0.00    -0.046 C 
ATOM     28  C   UNL     1      47.621  17.397  21.268  0.00  0.00    +0.017 C 
ENDROOT
BRANCH   8   7
ATOM      7  C   UNL     1      47.991  19.033  19.217  0.00  0.00    +0.019 C 
ATOM     29  C   UNL     1      49.298  19.381  18.503  0.00  0.00    +0.020 C 
BRANCH   7   6
ATOM      5  C   UNL     1      46.435  20.831  19.772  0.00  0.00    -0.051 C 
ATOM      6  C   UNL     1      46.934  20.044  18.852  0.00  0.00    -0.043 C 
BRANCH   5   4
ATOM      4  C   UNL     1      45.379  21.842  19.406  0.00  0.00    +0.045 C 
BRANCH   4   3
ATOM      3  C   UNL     1      44.038  21.420  20.009  0.00  0.00    -0.018 C 
ATOM     30  C   UNL     1      44.279  20.718  21.347  0.00  0.00    +0.015 C 
BRANCH   3   2
ATOM      1  C   UNL     1      42.730  19.298  19.844  0.00  0.00    +0.007 C 
ATOM      2  C   UNL     1      43.326  20.463  19.051  0.00  0.00    -0.000 C 
ENDBRANCH   3   2
ENDBRANCH   4   3
ENDBRANCH   5   4
ENDBRANCH   7   6
ENDBRANCH   8   7
BRANCH  20  21
ATOM     21  O   UNL     1      49.502  11.484  13.806  0.00  0.00    -0.571 OA
ATOM     22  H   UNL     1      48.914  10.717  13.801  0.00  0.00    +0.378 HD
ENDBRANCH  20  21
TORSDOF 6
ENDMDL
