MODEL 1
REMARK VINA RESULT:      -4.5      0.000      0.000
REMARK  Name = ZINC95485882
REMARK  20 active torsions:
REMARK  status: ('A' for Active; 'I' for Inactive)
REMARK    1  A    between atoms: C1_1  and  C2_2
REMARK    2  A    between atoms: C5_5  and  C36_45
REMARK    3  A    between atoms: C7_7  and  C13_15
REMARK    4  A    between atoms: C8_8  and  O2_14
REMARK    5  A    between atoms: C10_10  and  O1_12
REMARK    6  A    between atoms: O1_12  and  C12_13
REMARK    7  A    between atoms: C15_17  and  C25_29
REMARK    8  A    between atoms: C18_20  and  C24_28
REMARK    9  A    between atoms: C20_22  and  O4_26
REMARK   10  A    between atoms: C22_24  and  O3_25
REMARK   11  A    between atoms: O4_26  and  C23_27
REMARK   12  A    between atoms: C26_30  and  O6_44
REMARK   13  A    between atoms: C28_32  and  O5_43
REMARK   14  A    between atoms: C32_36  and  C35_42
REMARK   15  A    between atoms: C33_39  and  C34_41
REMARK   16  A    between atoms: C37_46  and  O8_60
REMARK   17  A    between atoms: C41_50  and  O7_51
REMARK   18  A    between atoms: O7_51  and  C42_52
REMARK   19  A    between atoms: C43_53  and  C47_59
REMARK   20  A    between atoms: C44_55  and  C46_58
REMARK                            x       y       z     vdW  Elec       q    Type
REMARK                         _______ _______ _______ _____ _____    ______ ____
ROOT
ATOM     24  C   UNL     1      48.753  15.190  18.415  0.00  0.00    -0.092 A 
ATOM     25  C   UNL     1      50.040  15.260  18.965  0.00  0.00    +0.074 A 
ATOM     26  C   UNL     1      51.112  14.670  18.324  0.00  0.00    -0.083 A 
ATOM     45  C   UNL     1      50.910  13.988  17.099  0.00  0.00    +0.031 A 
ATOM     46  C   UNL     1      51.980  13.379  16.428  0.00  0.00    -0.045 A 
ATOM     47  C   UNL     1      51.764  12.728  15.250  0.00  0.00    -0.017 A 
ATOM     48  C   UNL     1      52.923  12.079  14.539  0.00  0.00    +0.094 C 
ATOM     49  C   UNL     1      50.490  12.653  14.696  0.00  0.00    -0.099 A 
ATOM     50  C   UNL     1      49.414  13.238  15.324  0.00  0.00    +0.172 A 
ATOM     53  C   UNL     1      49.609  13.917  16.545  0.00  0.00    -0.107 A 
ATOM     54  C   UNL     1      48.531  14.522  17.218  0.00  0.00    +0.202 A 
ENDROOT
BRANCH  26  27
ATOM     27  C   UNL     1      52.467  14.751  18.915  0.00  0.00    -0.054 A 
ATOM     28  C   UNL     1      53.252  15.890  18.707  0.00  0.00    +0.172 A 
ATOM     31  C   UNL     1      54.518  15.959  19.262  0.00  0.00    -0.018 A 
ATOM     32  C   UNL     1      55.000  14.902  20.017  0.00  0.00    +0.160 A 
ATOM     35  C   UNL     1      54.221  13.766  20.225  0.00  0.00    -0.165 A 
ATOM     36  C   UNL     1      54.795  12.643  21.051  0.00  0.00    +0.239 C 
ATOM     37  C   UNL     1      55.542  13.231  22.249  0.00  0.00    +0.093 C 
ATOM     38  N   UNL     1      53.723  11.768  21.545  0.00  0.00    -0.504 N 
ATOM     39  H   UNL     1      54.128  10.971  22.010  0.00  0.00    +0.432 HD
ATOM     40  H   UNL     1      53.135  12.275  22.189  0.00  0.00    +0.429 HD
ATOM     41  C   UNL     1      52.921  11.314  20.399  0.00  0.00    +0.179 C 
ATOM     42  C   UNL     1      53.844  10.829  19.279  0.00  0.00    +0.089 C 
ATOM     43  C   UNL     1      52.077  12.488  19.898  0.00  0.00    +0.133 C 
ATOM     44  C   UNL     1      52.958  13.693  19.684  0.00  0.00    -0.038 A 
BRANCH  28  29
ATOM     29  O   UNL     1      52.775  16.923  17.964  0.00  0.00    -0.480 OA
ATOM     30  H   UNL     1      52.010  16.695  17.420  0.00  0.00    +0.402 HD
ENDBRANCH  28  29
BRANCH  32  33
ATOM     33  O   UNL     1      56.244  14.974  20.558  0.00  0.00    -0.490 OA
ATOM     34  H   UNL     1      56.759  14.160  20.472  0.00  0.00    +0.401 HD
ENDBRANCH  32  33
ENDBRANCH  26  27
BRANCH  24  23
ATOM      1  C   UNL     1      42.352  17.539  22.505  0.00  0.00    +0.095 C 
ATOM      2  C   UNL     1      43.505  16.882  21.790  0.00  0.00    -0.023 A 
ATOM      3  C   UNL     1      44.402  17.654  21.114  0.00  0.00    -0.032 A 
ATOM      4  C   UNL     1      45.479  17.055  20.446  0.00  0.00    +0.028 A 
ATOM      5  C   UNL     1      46.425  17.839  19.738  0.00  0.00    -0.040 A 
ATOM     22  C   UNL     1      47.476  17.222  19.088  0.00  0.00    +0.068 A 
ATOM     23  C   UNL     1      47.618  15.829  19.121  0.00  0.00    -0.094 A 
ATOM     57  C   UNL     1      46.703  15.042  19.808  0.00  0.00    +0.183 A 
ATOM     60  C   UNL     1      45.623  15.647  20.479  0.00  0.00    -0.103 A 
ATOM     61  C   UNL     1      44.680  14.872  21.185  0.00  0.00    +0.163 A 
ATOM     64  C   UNL     1      43.639  15.499  21.833  0.00  0.00    -0.095 A 
BRANCH   5   6
ATOM      6  C   UNL     1      46.285  19.312  19.695  0.00  0.00    -0.105 A 
ATOM      7  C   UNL     1      45.553  19.917  18.668  0.00  0.00    +0.153 A 
ATOM     10  C   UNL     1      45.418  21.299  18.623  0.00  0.00    -0.010 A 
ATOM     11  C   UNL     1      46.003  22.082  19.591  0.00  0.00    -0.029 A 
ATOM     12  C   UNL     1      46.739  21.491  20.628  0.00  0.00    -0.136 A 
ATOM     13  C   UNL     1      47.351  22.363  21.643  0.00  0.00    +0.219 C 
ATOM     14  C   UNL     1      48.473  21.846  22.505  0.00  0.00    +0.135 C 
ATOM     15  N   UNL     1      46.921  23.572  21.795  0.00  0.00    -0.508 NA
ATOM     16  C   UNL     1      45.826  24.114  20.997  0.00  0.00    +0.150 C 
ATOM     17  C   UNL     1      45.933  25.640  20.967  0.00  0.00    +0.057 C 
ATOM     18  C   UNL     1      45.870  23.583  19.565  0.00  0.00    +0.075 C 
ATOM     19  C   UNL     1      46.877  20.102  20.685  0.00  0.00    +0.168 A 
BRANCH   7   8
ATOM      8  O   UNL     1      44.973  19.151  17.709  0.00  0.00    -0.485 OA
ATOM      9  H   UNL     1      45.572  18.898  16.993  0.00  0.00    +0.389 HD
ENDBRANCH   7   8
BRANCH  19  20
ATOM     20  O   UNL     1      47.583  19.525  21.690  0.00  0.00    -0.323 OA
ATOM     21  C   UNL     1      48.928  19.138  21.399  0.00  0.00    +0.235 C 
ENDBRANCH  19  20
ENDBRANCH   5   6
BRANCH  57  58
ATOM     58  O   UNL     1      46.849  13.692  19.833  0.00  0.00    -0.462 OA
ATOM     59  H   UNL     1      46.965  13.292  18.961  0.00  0.00    +0.382 HD
ENDBRANCH  57  58
BRANCH  61  62
ATOM     62  O   UNL     1      44.800  13.520  21.228  0.00  0.00    -0.294 OA
ATOM     63  C   UNL     1      44.617  12.894  22.500  0.00  0.00    +0.241 C 
ENDBRANCH  61  62
ENDBRANCH  24  23
BRANCH  50  51
ATOM     51  O   UNL     1      48.175  13.160  14.775  0.00  0.00    -0.291 OA
ATOM     52  C   UNL     1      47.667  11.852  14.502  0.00  0.00    +0.246 C 
ENDBRANCH  50  51
BRANCH  54  55
ATOM     55  O   UNL     1      47.280  14.455  16.697  0.00  0.00    -0.464 OA
ATOM     56  H   UNL     1      46.575  14.482  17.358  0.00  0.00    +0.394 HD
ENDBRANCH  54  55
TORSDOF 11
ENDMDL
MODEL 2
REMARK VINA RESULT:      -4.1      2.161     10.198
REMARK  Name = ZINC95485882
REMARK  20 active torsions:
REMARK  status: ('A' for Active; 'I' for Inactive)
REMARK    1  A    between atoms: C1_1  and  C2_2
REMARK    2  A    between atoms: C5_5  and  C36_45
REMARK    3  A    between atoms: C7_7  and  C13_15
REMARK    4  A    between atoms: C8_8  and  O2_14
REMARK    5  A    between atoms: C10_10  and  O1_12
REMARK    6  A    between atoms: O1_12  and  C12_13
REMARK    7  A    between atoms: C15_17  and  C25_29
REMARK    8  A    between atoms: C18_20  and  C24_28
REMARK    9  A    between atoms: C20_22  and  O4_26
REMARK   10  A    between atoms: C22_24  and  O3_25
REMARK   11  A    between atoms: O4_26  and  C23_27
REMARK   12  A    between atoms: C26_30  and  O6_44
REMARK   13  A    between atoms: C28_32  and  O5_43
REMARK   14  A    between atoms: C32_36  and  C35_42
REMARK   15  A    between atoms: C33_39  and  C34_41
REMARK   16  A    between atoms: C37_46  and  O8_60
REMARK   17  A    between atoms: C41_50  and  O7_51
REMARK   18  A    between atoms: O7_51  and  C42_52
REMARK   19  A    between atoms: C43_53  and  C47_59
REMARK   20  A    between atoms: C44_55  and  C46_58
REMARK                            x       y       z     vdW  Elec       q    Type
REMARK                         _______ _______ _______ _____ _____    ______ ____
ROOT
ATOM     24  C   UNL     1      48.019  16.366  20.524  0.00  0.00    -0.092 A 
ATOM     25  C   UNL     1      47.677  17.662  20.118  0.00  0.00    +0.074 A 
ATOM     26  C   UNL     1      46.413  18.165  20.362  0.00  0.00    -0.083 A 
ATOM     45  C   UNL     1      45.454  17.363  21.030  0.00  0.00    +0.031 A 
ATOM     46  C   UNL     1      44.165  17.849  21.289  0.00  0.00    -0.045 A 
ATOM     47  C   UNL     1      43.257  17.062  21.932  0.00  0.00    -0.017 A 
ATOM     48  C   UNL     1      41.875  17.596  22.206  0.00  0.00    +0.094 C 
ATOM     49  C   UNL     1      43.587  15.773  22.340  0.00  0.00    -0.099 A 
ATOM     50  C   UNL     1      44.843  15.261  22.103  0.00  0.00    +0.172 A 
ATOM     53  C   UNL     1      45.802  16.054  21.438  0.00  0.00    -0.107 A 
ATOM     54  C   UNL     1      47.093  15.560  21.175  0.00  0.00    +0.202 A 
ENDROOT
BRANCH  26  27
ATOM     27  C   UNL     1      46.064  19.537  19.929  0.00  0.00    -0.054 A 
ATOM     28  C   UNL     1      45.363  19.735  18.734  0.00  0.00    +0.172 A 
ATOM     31  C   UNL     1      45.040  21.020  18.336  0.00  0.00    -0.018 A 
ATOM     32  C   UNL     1      45.414  22.101  19.118  0.00  0.00    +0.160 A 
ATOM     35  C   UNL     1      46.113  21.907  20.308  0.00  0.00    -0.165 A 
ATOM     36  C   UNL     1      46.498  23.117  21.119  0.00  0.00    +0.239 C 
ATOM     37  C   UNL     1      45.336  24.111  21.123  0.00  0.00    +0.093 C 
ATOM     38  N   UNL     1      46.796  22.733  22.505  0.00  0.00    -0.504 N 
ATOM     39  H   UNL     1      47.146  23.534  23.008  0.00  0.00    +0.432 HD
ATOM     40  H   UNL     1      45.961  22.389  22.955  0.00  0.00    +0.429 HD
ATOM     41  C   UNL     1      47.819  21.676  22.491  0.00  0.00    +0.179 C 
ATOM     42  C   UNL     1      48.958  22.070  21.548  0.00  0.00    +0.089 C 
ATOM     43  C   UNL     1      47.173  20.378  22.003  0.00  0.00    +0.133 C 
ATOM     44  C   UNL     1      46.430  20.632  20.716  0.00  0.00    -0.038 A 
BRANCH  28  29
ATOM     29  O   UNL     1      45.000  18.671  17.970  0.00  0.00    -0.480 OA
ATOM     30  H   UNL     1      44.349  18.092  18.387  0.00  0.00    +0.402 HD
ENDBRANCH  28  29
BRANCH  32  33
ATOM     33  O   UNL     1      45.095  23.361  18.721  0.00  0.00    -0.490 OA
ATOM     34  H   UNL     1      44.164  23.477  18.489  0.00  0.00    +0.401 HD
ENDBRANCH  32  33
ENDBRANCH  26  27
BRANCH  24  23
ATOM      1  C   UNL     1      55.666  14.270  19.921  0.00  0.00    +0.095 C 
ATOM      2  C   UNL     1      54.284  14.803  20.205  0.00  0.00    -0.023 A 
ATOM      3  C   UNL     1      53.231  14.367  19.459  0.00  0.00    -0.032 A 
ATOM      4  C   UNL     1      51.942  14.854  19.715  0.00  0.00    +0.028 A 
ATOM      5  C   UNL     1      50.831  14.414  18.952  0.00  0.00    -0.040 A 
ATOM     22  C   UNL     1      49.571  14.911  19.226  0.00  0.00    +0.068 A 
ATOM     23  C   UNL     1      49.380  15.846  20.250  0.00  0.00    -0.094 A 
ATOM     57  C   UNL     1      50.454  16.292  21.010  0.00  0.00    +0.183 A 
ATOM     60  C   UNL     1      51.747  15.800  20.751  0.00  0.00    -0.103 A 
ATOM     61  C   UNL     1      52.854  16.234  21.507  0.00  0.00    +0.163 A 
ATOM     64  C   UNL     1      54.105  15.727  21.229  0.00  0.00    -0.095 A 
BRANCH   5   6
ATOM      6  C   UNL     1      51.021  13.426  17.866  0.00  0.00    -0.105 A 
ATOM      7  C   UNL     1      50.829  12.063  18.117  0.00  0.00    +0.153 A 
ATOM     10  C   UNL     1      51.006  11.132  17.101  0.00  0.00    -0.010 A 
ATOM     11  C   UNL     1      51.370  11.545  15.841  0.00  0.00    -0.029 A 
ATOM     12  C   UNL     1      51.566  12.907  15.573  0.00  0.00    -0.136 A 
ATOM     13  C   UNL     1      51.958  13.309  14.213  0.00  0.00    +0.219 C 
ATOM     14  C   UNL     1      52.584  14.659  13.974  0.00  0.00    +0.135 C 
ATOM     15  N   UNL     1      51.762  12.501  13.223  0.00  0.00    -0.508 NA
ATOM     16  C   UNL     1      51.145  11.190  13.399  0.00  0.00    +0.150 C 
ATOM     17  C   UNL     1      51.568  10.277  12.248  0.00  0.00    +0.057 C 
ATOM     18  C   UNL     1      51.568  10.554  14.723  0.00  0.00    +0.075 C 
ATOM     19  C   UNL     1      51.387  13.853  16.586  0.00  0.00    +0.168 A 
BRANCH   7   8
ATOM      8  O   UNL     1      50.469  11.647  19.358  0.00  0.00    -0.485 OA
ATOM      9  H   UNL     1      50.768  10.754  19.575  0.00  0.00    +0.389 HD
ENDBRANCH   7   8
BRANCH  19  20
ATOM     20  O   UNL     1      51.568  15.173  16.330  0.00  0.00    -0.323 OA
ATOM     21  C   UNL     1      50.415  16.014  16.414  0.00  0.00    +0.235 C 
ENDBRANCH  19  20
ENDBRANCH   5   6
BRANCH  57  58
ATOM     58  O   UNL     1      50.257  17.199  22.001  0.00  0.00    -0.462 OA
ATOM     59  H   UNL     1      49.551  17.835  21.818  0.00  0.00    +0.382 HD
ENDBRANCH  57  58
BRANCH  61  62
ATOM     62  O   UNL     1      52.689  17.141  22.505  0.00  0.00    -0.294 OA
ATOM     63  C   UNL     1      53.189  18.459  22.273  0.00  0.00    +0.241 C 
ENDBRANCH  61  62
ENDBRANCH  24  23
BRANCH  50  51
ATOM     51  O   UNL     1      45.156  14.002  22.505  0.00  0.00    -0.291 OA
ATOM     52  C   UNL     1      44.792  12.932  21.631  0.00  0.00    +0.246 C 
ENDBRANCH  50  51
BRANCH  54  55
ATOM     55  O   UNL     1      47.434  14.304  21.559  0.00  0.00    -0.464 OA
ATOM     56  H   UNL     1      47.126  13.611  20.959  0.00  0.00    +0.394 HD
ENDBRANCH  54  55
TORSDOF 11
ENDMDL
MODEL 3
REMARK VINA RESULT:      -4.0      1.712      9.857
REMARK  Name = ZINC95485882
REMARK  20 active torsions:
REMARK  status: ('A' for Active; 'I' for Inactive)
REMARK    1  A    between atoms: C1_1  and  C2_2
REMARK    2  A    between atoms: C5_5  and  C36_45
REMARK    3  A    between atoms: C7_7  and  C13_15
REMARK    4  A    between atoms: C8_8  and  O2_14
REMARK    5  A    between atoms: C10_10  and  O1_12
REMARK    6  A    between atoms: O1_12  and  C12_13
REMARK    7  A    between atoms: C15_17  and  C25_29
REMARK    8  A    between atoms: C18_20  and  C24_28
REMARK    9  A    between atoms: C20_22  and  O4_26
REMARK   10  A    between atoms: C22_24  and  O3_25
REMARK   11  A    between atoms: O4_26  and  C23_27
REMARK   12  A    between atoms: C26_30  and  O6_44
REMARK   13  A    between atoms: C28_32  and  O5_43
REMARK   14  A    between atoms: C32_36  and  C35_42
REMARK   15  A    between atoms: C33_39  and  C34_41
REMARK   16  A    between atoms: C37_46  and  O8_60
REMARK   17  A    between atoms: C41_50  and  O7_51
REMARK   18  A    between atoms: O7_51  and  C42_52
REMARK   19  A    between atoms: C43_53  and  C47_59
REMARK   20  A    between atoms: C44_55  and  C46_58
REMARK                            x       y       z     vdW  Elec       q    Type
REMARK                         _______ _______ _______ _____ _____    ______ ____
ROOT
ATOM     24  C   UNL     1      48.311  14.672  19.327  0.00  0.00    -0.092 A 
ATOM     25  C   UNL     1      48.136  16.032  19.042  0.00  0.00    +0.074 A 
ATOM     26  C   UNL     1      47.088  16.739  19.600  0.00  0.00    -0.083 A 
ATOM     45  C   UNL     1      46.182  16.083  20.469  0.00  0.00    +0.031 A 
ATOM     46  C   UNL     1      45.109  16.776  21.049  0.00  0.00    -0.045 A 
ATOM     47  C   UNL     1      44.249  16.127  21.882  0.00  0.00    -0.017 A 
ATOM     48  C   UNL     1      43.101  16.883  22.499  0.00  0.00    +0.094 C 
ATOM     49  C   UNL     1      44.414  14.775  22.171  0.00  0.00    -0.099 A 
ATOM     50  C   UNL     1      45.454  14.060  21.622  0.00  0.00    +0.172 A 
ATOM     53  C   UNL     1      46.359  14.708  20.755  0.00  0.00    -0.107 A 
ATOM     54  C   UNL     1      47.431  14.007  20.171  0.00  0.00    +0.202 A 
ENDROOT
BRANCH  26  27
ATOM     27  C   UNL     1      46.915  18.176  19.292  0.00  0.00    -0.054 A 
ATOM     28  C   UNL     1      46.245  18.566  18.127  0.00  0.00    +0.172 A 
ATOM     31  C   UNL     1      46.088  19.911  17.846  0.00  0.00    -0.018 A 
ATOM     32  C   UNL     1      46.594  20.863  18.716  0.00  0.00    +0.160 A 
ATOM     35  C   UNL     1      47.261  20.479  19.877  0.00  0.00    -0.165 A 
ATOM     36  C   UNL     1      47.795  21.555  20.787  0.00  0.00    +0.239 C 
ATOM     37  C   UNL     1      46.768  22.683  20.889  0.00  0.00    +0.093 C 
ATOM     38  N   UNL     1      48.041  21.016  22.131  0.00  0.00    -0.504 N 
ATOM     39  H   UNL     1      48.488  21.719  22.699  0.00  0.00    +0.432 HD
ATOM     40  H   UNL     1      47.169  20.741  22.557  0.00  0.00    +0.429 HD
ATOM     41  C   UNL     1      48.922  19.844  22.014  0.00  0.00    +0.179 C 
ATOM     42  C   UNL     1      50.103  20.174  21.098  0.00  0.00    +0.089 C 
ATOM     43  C   UNL     1      48.118  18.686  21.421  0.00  0.00    +0.133 C 
ATOM     44  C   UNL     1      47.415  19.143  20.168  0.00  0.00    -0.038 A 
BRANCH  28  29
ATOM     29  O   UNL     1      45.753  17.627  17.276  0.00  0.00    -0.480 OA
ATOM     30  H   UNL     1      46.017  17.754  16.355  0.00  0.00    +0.402 HD
ENDBRANCH  28  29
BRANCH  32  33
ATOM     33  O   UNL     1      46.437  22.183  18.434  0.00  0.00    -0.490 OA
ATOM     34  H   UNL     1      45.548  22.520  18.608  0.00  0.00    +0.401 HD
ENDBRANCH  32  33
ENDBRANCH  26  27
BRANCH  24  23
ATOM      1  C   UNL     1      53.714  10.663  15.089  0.00  0.00    +0.095 C 
ATOM      2  C   UNL     1      52.561  11.414  15.705  0.00  0.00    -0.023 A 
ATOM      3  C   UNL     1      52.650  11.838  16.997  0.00  0.00    -0.032 A 
ATOM      4  C   UNL     1      51.585  12.538  17.580  0.00  0.00    +0.028 A 
ATOM      5  C   UNL     1      51.656  12.988  18.922  0.00  0.00    -0.040 A 
ATOM     22  C   UNL     1      50.591  13.676  19.472  0.00  0.00    +0.068 A 
ATOM     23  C   UNL     1      49.441  13.933  18.715  0.00  0.00    -0.094 A 
ATOM     57  C   UNL     1      49.349  13.501  17.398  0.00  0.00    +0.183 A 
ATOM     60  C   UNL     1      50.421  12.798  16.816  0.00  0.00    -0.103 A 
ATOM     61  C   UNL     1      50.356  12.349  15.482  0.00  0.00    +0.163 A 
ATOM     64  C   UNL     1      51.426  11.669  14.943  0.00  0.00    -0.095 A 
BRANCH   5   6
ATOM      6  C   UNL     1      52.867  12.721  19.732  0.00  0.00    -0.105 A 
ATOM      7  C   UNL     1      52.950  11.557  20.504  0.00  0.00    +0.153 A 
ATOM     10  C   UNL     1      54.084  11.302  21.265  0.00  0.00    -0.010 A 
ATOM     11  C   UNL     1      55.133  12.191  21.263  0.00  0.00    -0.029 A 
ATOM     12  C   UNL     1      55.064  13.362  20.494  0.00  0.00    -0.136 A 
ATOM     13  C   UNL     1      56.206  14.290  20.520  0.00  0.00    +0.219 C 
ATOM     14  C   UNL     1      56.029  15.719  20.078  0.00  0.00    +0.135 C 
ATOM     15  N   UNL     1      57.362  13.874  20.922  0.00  0.00    -0.508 NA
ATOM     16  C   UNL     1      57.590  12.497  21.344  0.00  0.00    +0.150 C 
ATOM     17  C   UNL     1      58.802  12.451  22.276  0.00  0.00    +0.057 C 
ATOM     18  C   UNL     1      56.373  11.936  22.080  0.00  0.00    +0.075 C 
ATOM     19  C   UNL     1      53.931  13.627  19.721  0.00  0.00    +0.168 A 
BRANCH   7   8
ATOM      8  O   UNL     1      51.920  10.675  20.511  0.00  0.00    -0.485 OA
ATOM      9  H   UNL     1      52.196   9.748  20.498  0.00  0.00    +0.389 HD
ENDBRANCH   7   8
BRANCH  19  20
ATOM     20  O   UNL     1      53.863  14.755  18.970  0.00  0.00    -0.323 OA
ATOM     21  C   UNL     1      52.904  15.739  19.364  0.00  0.00    +0.235 C 
ENDBRANCH  19  20
ENDBRANCH   5   6
BRANCH  57  58
ATOM     58  O   UNL     1      48.229  13.756  16.674  0.00  0.00    -0.462 OA
ATOM     59  H   UNL     1      47.444  13.929  17.212  0.00  0.00    +0.382 HD
ENDBRANCH  57  58
BRANCH  61  62
ATOM     62  O   UNL     1      49.249  12.589  14.732  0.00  0.00    -0.294 OA
ATOM     63  C   UNL     1      49.447  12.800  13.333  0.00  0.00    +0.241 C 
ENDBRANCH  61  62
ENDBRANCH  24  23
BRANCH  50  51
ATOM     51  O   UNL     1      45.607  12.742  21.911  0.00  0.00    -0.291 OA
ATOM     52  C   UNL     1      44.492  12.074  22.504  0.00  0.00    +0.246 C 
ENDBRANCH  50  51
BRANCH  54  55
ATOM     55  O   UNL     1      47.606  12.688  20.436  0.00  0.00    -0.464 OA
ATOM     56  H   UNL     1      47.036  12.102  19.919  0.00  0.00    +0.394 HD
ENDBRANCH  54  55
TORSDOF 11
ENDMDL
MODEL 4
REMARK VINA RESULT:      -3.8      2.153     10.568
REMARK  Name = ZINC95485882
REMARK  20 active torsions:
REMARK  status: ('A' for Active; 'I' for Inactive)
REMARK    1  A    between atoms: C1_1  and  C2_2
REMARK    2  A    between atoms: C5_5  and  C36_45
REMARK    3  A    between atoms: C7_7  and  C13_15
REMARK    4  A    between atoms: C8_8  and  O2_14
REMARK    5  A    between atoms: C10_10  and  O1_12
REMARK    6  A    between atoms: O1_12  and  C12_13
REMARK    7  A    between atoms: C15_17  and  C25_29
REMARK    8  A    between atoms: C18_20  and  C24_28
REMARK    9  A    between atoms: C20_22  and  O4_26
REMARK   10  A    between atoms: C22_24  and  O3_25
REMARK   11  A    between atoms: O4_26  and  C23_27
REMARK   12  A    between atoms: C26_30  and  O6_44
REMARK   13  A    between atoms: C28_32  and  O5_43
REMARK   14  A    between atoms: C32_36  and  C35_42
REMARK   15  A    between atoms: C33_39  and  C34_41
REMARK   16  A    between atoms: C37_46  and  O8_60
REMARK   17  A    between atoms: C41_50  and  O7_51
REMARK   18  A    between atoms: O7_51  and  C42_52
REMARK   19  A    between atoms: C43_53  and  C47_59
REMARK   20  A    between atoms: C44_55  and  C46_58
REMARK                            x       y       z     vdW  Elec       q    Type
REMARK                         _______ _______ _______ _____ _____    ______ ____
ROOT
ATOM     24  C   UNL     1      49.586  16.528  19.947  0.00  0.00    -0.092 A 
ATOM     25  C   UNL     1      48.229  16.438  20.280  0.00  0.00    +0.074 A 
ATOM     26  C   UNL     1      47.568  17.516  20.837  0.00  0.00    -0.083 A 
ATOM     45  C   UNL     1      48.269  18.725  21.073  0.00  0.00    +0.031 A 
ATOM     46  C   UNL     1      47.623  19.834  21.638  0.00  0.00    -0.045 A 
ATOM     47  C   UNL     1      48.316  20.986  21.857  0.00  0.00    -0.017 A 
ATOM     48  C   UNL     1      47.610  22.172  22.464  0.00  0.00    +0.094 C 
ATOM     49  C   UNL     1      49.665  21.086  21.530  0.00  0.00    -0.099 A 
ATOM     50  C   UNL     1      50.334  20.018  20.974  0.00  0.00    +0.172 A 
ATOM     53  C   UNL     1      49.641  18.813  20.737  0.00  0.00    -0.107 A 
ATOM     54  C   UNL     1      50.295  17.700  20.176  0.00  0.00    +0.202 A 
ENDROOT
BRANCH  26  27
ATOM     27  C   UNL     1      46.133  17.410  21.184  0.00  0.00    -0.054 A 
ATOM     28  C   UNL     1      45.689  16.375  22.015  0.00  0.00    +0.172 A 
ATOM     31  C   UNL     1      44.346  16.282  22.333  0.00  0.00    -0.018 A 
ATOM     32  C   UNL     1      43.450  17.209  21.828  0.00  0.00    +0.160 A 
ATOM     35  C   UNL     1      43.887  18.241  21.000  0.00  0.00    -0.165 A 
ATOM     36  C   UNL     1      42.870  19.221  20.475  0.00  0.00    +0.239 C 
ATOM     37  C   UNL     1      41.882  19.566  21.589  0.00  0.00    +0.093 C 
ATOM     38  N   UNL     1      43.529  20.455  20.028  0.00  0.00    -0.504 N 
ATOM     39  H   UNL     1      42.849  21.059  19.590  0.00  0.00    +0.432 HD
ATOM     40  H   UNL     1      43.945  20.928  20.815  0.00  0.00    +0.429 HD
ATOM     41  C   UNL     1      44.575  20.105  19.055  0.00  0.00    +0.179 C 
ATOM     42  C   UNL     1      44.015  19.124  18.023  0.00  0.00    +0.089 C 
ATOM     43  C   UNL     1      45.739  19.455  19.803  0.00  0.00    +0.133 C 
ATOM     44  C   UNL     1      45.222  18.346  20.685  0.00  0.00    -0.038 A 
BRANCH  28  29
ATOM     29  O   UNL     1      46.573  15.467  22.505  0.00  0.00    -0.480 OA
ATOM     30  H   UNL     1      46.584  14.629  22.024  0.00  0.00    +0.402 HD
ENDBRANCH  28  29
BRANCH  32  33
ATOM     33  O   UNL     1      42.131  17.112  22.144  0.00  0.00    -0.490 OA
ATOM     34  H   UNL     1      41.571  17.762  21.697  0.00  0.00    +0.401 HD
ENDBRANCH  32  33
ENDBRANCH  26  27
BRANCH  24  23
ATOM      1  C   UNL     1      52.562  10.394  15.856  0.00  0.00    +0.095 C 
ATOM      2  C   UNL     1      51.858  11.584  16.455  0.00  0.00    -0.023 A 
ATOM      3  C   UNL     1      52.234  12.039  17.683  0.00  0.00    -0.032 A 
ATOM      4  C   UNL     1      51.587  13.145  18.249  0.00  0.00    +0.028 A 
ATOM      5  C   UNL     1      51.962  13.636  19.526  0.00  0.00    -0.040 A 
ATOM     22  C   UNL     1      51.307  14.728  20.060  0.00  0.00    +0.068 A 
ATOM     23  C   UNL     1      50.275  15.357  19.353  0.00  0.00    -0.094 A 
ATOM     57  C   UNL     1      49.890  14.894  18.101  0.00  0.00    +0.183 A 
ATOM     60  C   UNL     1      50.543  13.782  17.536  0.00  0.00    -0.103 A 
ATOM     61  C   UNL     1      50.174  13.292  16.267  0.00  0.00    +0.163 A 
ATOM     64  C   UNL     1      50.838  12.205  15.742  0.00  0.00    -0.095 A 
BRANCH   5   6
ATOM      6  C   UNL     1      53.051  12.977  20.283  0.00  0.00    -0.105 A 
ATOM      7  C   UNL     1      52.766  11.897  21.124  0.00  0.00    +0.153 A 
ATOM     10  C   UNL     1      53.785  11.276  21.836  0.00  0.00    -0.010 A 
ATOM     11  C   UNL     1      55.081  11.719  21.717  0.00  0.00    -0.029 A 
ATOM     12  C   UNL     1      55.383  12.800  20.877  0.00  0.00    -0.136 A 
ATOM     13  C   UNL     1      56.782  13.246  20.778  0.00  0.00    +0.219 C 
ATOM     14  C   UNL     1      57.101  14.622  20.253  0.00  0.00    +0.135 C 
ATOM     15  N   UNL     1      57.736  12.453  21.142  0.00  0.00    -0.508 NA
ATOM     16  C   UNL     1      57.480  11.106  21.641  0.00  0.00    +0.150 C 
ATOM     17  C   UNL     1      58.660  10.659  22.505  0.00  0.00    +0.057 C 
ATOM     18  C   UNL     1      56.202  11.061  22.478  0.00  0.00    +0.075 C 
ATOM     19  C   UNL     1      54.368  13.430  20.153  0.00  0.00    +0.168 A 
BRANCH   7   8
ATOM      8  O   UNL     1      51.489  11.454  21.247  0.00  0.00    -0.485 OA
ATOM      9  H   UNL     1      51.032  11.786  22.032  0.00  0.00    +0.389 HD
ENDBRANCH   7   8
BRANCH  19  20
ATOM     20  O   UNL     1      54.656  14.472  19.334  0.00  0.00    -0.323 OA
ATOM     21  C   UNL     1      54.476  15.786  19.868  0.00  0.00    +0.235 C 
ENDBRANCH  19  20
ENDBRANCH   5   6
BRANCH  57  58
ATOM     58  O   UNL     1      48.888  15.512  17.425  0.00  0.00    -0.462 OA
ATOM     59  H   UNL     1      48.911  16.477  17.482  0.00  0.00    +0.382 HD
ENDBRANCH  57  58
BRANCH  61  62
ATOM     62  O   UNL     1      49.175  13.889  15.566  0.00  0.00    -0.294 OA
ATOM     63  C   UNL     1      48.280  13.031  14.855  0.00  0.00    +0.241 C 
ENDBRANCH  61  62
ENDBRANCH  24  23
BRANCH  50  51
ATOM     51  O   UNL     1      51.650  20.125  20.658  0.00  0.00    -0.291 OA
ATOM     52  C   UNL     1      52.032  21.228  19.833  0.00  0.00    +0.246 C 
ENDBRANCH  50  51
BRANCH  54  55
ATOM     55  O   UNL     1      51.611  17.774  19.855  0.00  0.00    -0.464 OA
ATOM     56  H   UNL     1      51.989  16.941  19.543  0.00  0.00    +0.394 HD
ENDBRANCH  54  55
TORSDOF 11
ENDMDL
MODEL 5
REMARK VINA RESULT:      -3.3      2.095     10.416
REMARK  Name = ZINC95485882
REMARK  20 active torsions:
REMARK  status: ('A' for Active; 'I' for Inactive)
REMARK    1  A    between atoms: C1_1  and  C2_2
REMARK    2  A    between atoms: C5_5  and  C36_45
REMARK    3  A    between atoms: C7_7  and  C13_15
REMARK    4  A    between atoms: C8_8  and  O2_14
REMARK    5  A    between atoms: C10_10  and  O1_12
REMARK    6  A    between atoms: O1_12  and  C12_13
REMARK    7  A    between atoms: C15_17  and  C25_29
REMARK    8  A    between atoms: C18_20  and  C24_28
REMARK    9  A    between atoms: C20_22  and  O4_26
REMARK   10  A    between atoms: C22_24  and  O3_25
REMARK   11  A    between atoms: O4_26  and  C23_27
REMARK   12  A    between atoms: C26_30  and  O6_44
REMARK   13  A    between atoms: C28_32  and  O5_43
REMARK   14  A    between atoms: C32_36  and  C35_42
REMARK   15  A    between atoms: C33_39  and  C34_41
REMARK   16  A    between atoms: C37_46  and  O8_60
REMARK   17  A    between atoms: C41_50  and  O7_51
REMARK   18  A    between atoms: O7_51  and  C42_52
REMARK   19  A    between atoms: C43_53  and  C47_59
REMARK   20  A    between atoms: C44_55  and  C46_58
REMARK                            x       y       z     vdW  Elec       q    Type
REMARK                         _______ _______ _______ _____ _____    ______ ____
ROOT
ATOM     24  C   UNL     1      48.202  17.207  19.834  0.00  0.00    -0.092 A 
ATOM     25  C   UNL     1      46.845  17.066  20.148  0.00  0.00    +0.074 A 
ATOM     26  C   UNL     1      46.145  18.105  20.730  0.00  0.00    -0.083 A 
ATOM     45  C   UNL     1      46.806  19.326  21.012  0.00  0.00    +0.031 A 
ATOM     46  C   UNL     1      46.120  20.396  21.604  0.00  0.00    -0.045 A 
ATOM     47  C   UNL     1      46.774  21.562  21.868  0.00  0.00    -0.017 A 
ATOM     48  C   UNL     1      46.025  22.705  22.503  0.00  0.00    +0.094 C 
ATOM     49  C   UNL     1      48.123  21.713  21.561  0.00  0.00    -0.099 A 
ATOM     50  C   UNL     1      48.831  20.685  20.979  0.00  0.00    +0.172 A 
ATOM     53  C   UNL     1      48.178  19.467  20.696  0.00  0.00    -0.107 A 
ATOM     54  C   UNL     1      48.872  18.393  20.108  0.00  0.00    +0.202 A 
ENDROOT
BRANCH  26  27
ATOM     27  C   UNL     1      44.710  17.944  21.055  0.00  0.00    -0.054 A 
ATOM     28  C   UNL     1      44.302  16.940  21.941  0.00  0.00    +0.172 A 
ATOM     31  C   UNL     1      42.959  16.796  22.239  0.00  0.00    -0.018 A 
ATOM     32  C   UNL     1      42.027  17.641  21.660  0.00  0.00    +0.160 A 
ATOM     35  C   UNL     1      42.429  18.641  20.777  0.00  0.00    -0.165 A 
ATOM     36  C   UNL     1      41.374  19.531  20.172  0.00  0.00    +0.239 C 
ATOM     37  C   UNL     1      40.344  19.891  21.244  0.00  0.00    +0.093 C 
ATOM     38  N   UNL     1      41.978  20.769  19.661  0.00  0.00    -0.504 N 
ATOM     39  H   UNL     1      41.278  21.308  19.174  0.00  0.00    +0.432 HD
ATOM     40  H   UNL     1      42.351  21.311  20.426  0.00  0.00    +0.429 HD
ATOM     41  C   UNL     1      43.062  20.416  18.732  0.00  0.00    +0.179 C 
ATOM     42  C   UNL     1      42.577  19.345  17.753  0.00  0.00    +0.089 C 
ATOM     43  C   UNL     1      44.242  19.876  19.542  0.00  0.00    +0.133 C 
ATOM     44  C   UNL     1      43.764  18.798  20.481  0.00  0.00    -0.038 A 
BRANCH  28  29
ATOM     29  O   UNL     1      45.221  16.112  22.504  0.00  0.00    -0.480 OA
ATOM     30  H   UNL     1      45.081  15.953  23.447  0.00  0.00    +0.402 HD
ENDBRANCH  28  29
BRANCH  32  33
ATOM     33  O   UNL     1      40.709  17.493  21.956  0.00  0.00    -0.490 OA
ATOM     34  H   UNL     1      40.371  16.599  21.811  0.00  0.00    +0.401 HD
ENDBRANCH  32  33
ENDBRANCH  26  27
BRANCH  24  23
ATOM      1  C   UNL     1      51.141  10.944  15.915  0.00  0.00    +0.095 C 
ATOM      2  C   UNL     1      50.391  12.090  16.543  0.00  0.00    -0.023 A 
ATOM      3  C   UNL     1      51.018  12.880  17.460  0.00  0.00    -0.032 A 
ATOM      4  C   UNL     1      50.332  13.950  18.051  0.00  0.00    +0.028 A 
ATOM      5  C   UNL     1      50.965  14.785  19.006  0.00  0.00    -0.040 A 
ATOM     22  C   UNL     1      50.265  15.832  19.572  0.00  0.00    +0.068 A 
ATOM     23  C   UNL     1      48.934  16.078  19.212  0.00  0.00    -0.094 A 
ATOM     57  C   UNL     1      48.293  15.273  18.279  0.00  0.00    +0.183 A 
ATOM     60  C   UNL     1      48.986  14.200  17.688  0.00  0.00    -0.103 A 
ATOM     61  C   UNL     1      48.361  13.367  16.737  0.00  0.00    +0.163 A 
ATOM     64  C   UNL     1      49.072  12.330  16.175  0.00  0.00    -0.095 A 
BRANCH   5   6
ATOM      6  C   UNL     1      52.372  14.533  19.394  0.00  0.00    -0.105 A 
ATOM      7  C   UNL     1      53.387  15.380  18.937  0.00  0.00    +0.153 A 
ATOM     10  C   UNL     1      54.708  15.149  19.299  0.00  0.00    -0.010 A 
ATOM     11  C   UNL     1      55.026  14.086  20.112  0.00  0.00    -0.029 A 
ATOM     12  C   UNL     1      54.020  13.228  20.579  0.00  0.00    -0.136 A 
ATOM     13  C   UNL     1      54.401  12.101  21.444  0.00  0.00    +0.219 C 
ATOM     14  C   UNL     1      53.464  10.934  21.621  0.00  0.00    +0.135 C 
ATOM     15  N   UNL     1      55.540  12.116  22.055  0.00  0.00    -0.508 NA
ATOM     16  C   UNL     1      56.475  13.230  21.930  0.00  0.00    +0.150 C 
ATOM     17  C   UNL     1      57.888  12.737  22.244  0.00  0.00    +0.057 C 
ATOM     18  C   UNL     1      56.452  13.815  20.519  0.00  0.00    +0.075 C 
ATOM     19  C   UNL     1      52.687  13.454  20.225  0.00  0.00    +0.168 A 
BRANCH   7   8
ATOM      8  O   UNL     1      53.081  16.431  18.134  0.00  0.00    -0.485 OA
ATOM      9  H   UNL     1      53.454  17.273  18.431  0.00  0.00    +0.389 HD
ENDBRANCH   7   8
BRANCH  19  20
ATOM     20  O   UNL     1      51.709  12.631  20.680  0.00  0.00    -0.323 OA
ATOM     21  C   UNL     1      51.073  12.998  21.907  0.00  0.00    +0.235 C 
ENDBRANCH  19  20
ENDBRANCH   5   6
BRANCH  57  58
ATOM     58  O   UNL     1      47.003  15.520  17.938  0.00  0.00    -0.462 OA
ATOM     59  H   UNL     1      46.801  15.348  17.008  0.00  0.00    +0.382 HD
ENDBRANCH  57  58
BRANCH  61  62
ATOM     62  O   UNL     1      47.071  13.590  16.375  0.00  0.00    -0.294 OA
ATOM     63  C   UNL     1      46.125  12.566  16.686  0.00  0.00    +0.241 C 
ENDBRANCH  61  62
ENDBRANCH  24  23
BRANCH  50  51
ATOM     51  O   UNL     1      50.147  20.841  20.683  0.00  0.00    -0.291 OA
ATOM     52  C   UNL     1      51.002  21.285  21.738  0.00  0.00    +0.246 C 
ENDBRANCH  50  51
BRANCH  54  55
ATOM     55  O   UNL     1      50.189  18.517  19.806  0.00  0.00    -0.464 OA
ATOM     56  H   UNL     1      50.652  19.186  20.328  0.00  0.00    +0.394 HD
ENDBRANCH  54  55
TORSDOF 11
ENDMDL
MODEL 6
REMARK VINA RESULT:      -3.0      2.482      6.362
REMARK  Name = ZINC95485882
REMARK  20 active torsions:
REMARK  status: ('A' for Active; 'I' for Inactive)
REMARK    1  A    between atoms: C1_1  and  C2_2
REMARK    2  A    between atoms: C5_5  and  C36_45
REMARK    3  A    between atoms: C7_7  and  C13_15
REMARK    4  A    between atoms: C8_8  and  O2_14
REMARK    5  A    between atoms: C10_10  and  O1_12
REMARK    6  A    between atoms: O1_12  and  C12_13
REMARK    7  A    between atoms: C15_17  and  C25_29
REMARK    8  A    between atoms: C18_20  and  C24_28
REMARK    9  A    between atoms: C20_22  and  O4_26
REMARK   10  A    between atoms: C22_24  and  O3_25
REMARK   11  A    between atoms: O4_26  and  C23_27
REMARK   12  A    between atoms: C26_30  and  O6_44
REMARK   13  A    between atoms: C28_32  and  O5_43
REMARK   14  A    between atoms: C32_36  and  C35_42
REMARK   15  A    between atoms: C33_39  and  C34_41
REMARK   16  A    between atoms: C37_46  and  O8_60
REMARK   17  A    between atoms: C41_50  and  O7_51
REMARK   18  A    between atoms: O7_51  and  C42_52
REMARK   19  A    between atoms: C43_53  and  C47_59
REMARK   20  A    between atoms: C44_55  and  C46_58
REMARK                            x       y       z     vdW  Elec       q    Type
REMARK                         _______ _______ _______ _____ _____    ______ ____
ROOT
ATOM     24  C   UNL     1      50.075  15.534  18.918  0.00  0.00    -0.092 A 
ATOM     25  C   UNL     1      49.589  15.141  17.665  0.00  0.00    +0.074 A 
ATOM     26  C   UNL     1      50.117  14.040  17.019  0.00  0.00    -0.083 A 
ATOM     45  C   UNL     1      51.160  13.300  17.630  0.00  0.00    +0.031 A 
ATOM     46  C   UNL     1      51.714  12.178  16.996  0.00  0.00    -0.045 A 
ATOM     47  C   UNL     1      52.716  11.480  17.601  0.00  0.00    -0.017 A 
ATOM     48  C   UNL     1      53.303  10.277  16.910  0.00  0.00    +0.094 C 
ATOM     49  C   UNL     1      53.206  11.863  18.846  0.00  0.00    -0.099 A 
ATOM     50  C   UNL     1      52.687  12.958  19.500  0.00  0.00    +0.172 A 
ATOM     53  C   UNL     1      51.650  13.699  18.896  0.00  0.00    -0.107 A 
ATOM     54  C   UNL     1      51.101  14.827  19.533  0.00  0.00    +0.202 A 
ENDROOT
BRANCH  26  27
ATOM     27  C   UNL     1      49.595  13.634  15.695  0.00  0.00    -0.054 A 
ATOM     28  C   UNL     1      48.239  13.322  15.544  0.00  0.00    +0.172 A 
ATOM     31  C   UNL     1      47.758  12.943  14.303  0.00  0.00    -0.018 A 
ATOM     32  C   UNL     1      48.619  12.873  13.221  0.00  0.00    +0.160 A 
ATOM     35  C   UNL     1      49.970  13.182  13.367  0.00  0.00    -0.165 A 
ATOM     36  C   UNL     1      50.864  13.086  12.157  0.00  0.00    +0.239 C 
ATOM     37  C   UNL     1      50.126  13.647  10.941  0.00  0.00    +0.093 C 
ATOM     38  N   UNL     1      52.094  13.862  12.364  0.00  0.00    -0.504 N 
ATOM     39  H   UNL     1      52.722  13.708  11.590  0.00  0.00    +0.432 HD
ATOM     40  H   UNL     1      51.874  14.844  12.433  0.00  0.00    +0.429 HD
ATOM     41  C   UNL     1      52.730  13.411  13.611  0.00  0.00    +0.179 C 
ATOM     42  C   UNL     1      52.779  11.882  13.644  0.00  0.00    +0.089 C 
ATOM     43  C   UNL     1      51.906  13.925  14.793  0.00  0.00    +0.133 C 
ATOM     44  C   UNL     1      50.455  13.568  14.595  0.00  0.00    -0.038 A 
BRANCH  28  29
ATOM     29  O   UNL     1      47.400  13.390  16.611  0.00  0.00    -0.480 OA
ATOM     30  H   UNL     1      46.504  13.676  16.388  0.00  0.00    +0.402 HD
ENDBRANCH  28  29
BRANCH  32  33
ATOM     33  O   UNL     1      48.142  12.498  12.004  0.00  0.00    -0.490 OA
ATOM     34  H   UNL     1      47.382  11.902  12.046  0.00  0.00    +0.401 HD
ENDBRANCH  32  33
ENDBRANCH  26  27
BRANCH  24  23
ATOM      1  C   UNL     1      48.039  22.332  22.505  0.00  0.00    +0.095 C 
ATOM      2  C   UNL     1      48.636  21.129  21.820  0.00  0.00    -0.023 A 
ATOM      3  C   UNL     1      47.836  20.073  21.502  0.00  0.00    -0.032 A 
ATOM      4  C   UNL     1      48.379  18.949  20.865  0.00  0.00    +0.028 A 
ATOM      5  C   UNL     1      47.566  17.839  20.524  0.00  0.00    -0.040 A 
ATOM     22  C   UNL     1      48.128  16.744  19.896  0.00  0.00    +0.068 A 
ATOM     23  C   UNL     1      49.495  16.720  19.592  0.00  0.00    -0.094 A 
ATOM     57  C   UNL     1      50.310  17.796  19.916  0.00  0.00    +0.183 A 
ATOM     60  C   UNL     1      49.761  18.923  20.556  0.00  0.00    -0.103 A 
ATOM     61  C   UNL     1      50.566  20.030  20.896  0.00  0.00    +0.163 A 
ATOM     64  C   UNL     1      49.993  21.118  21.517  0.00  0.00    -0.095 A 
BRANCH   5   6
ATOM      6  C   UNL     1      46.120  17.853  20.842  0.00  0.00    -0.105 A 
ATOM      7  C   UNL     1      45.612  17.008  21.835  0.00  0.00    +0.153 A 
ATOM     10  C   UNL     1      44.256  17.018  22.138  0.00  0.00    -0.010 A 
ATOM     11  C   UNL     1      43.404  17.860  21.464  0.00  0.00    -0.029 A 
ATOM     12  C   UNL     1      43.897  18.714  20.466  0.00  0.00    -0.136 A 
ATOM     13  C   UNL     1      42.953  19.598  19.766  0.00  0.00    +0.219 C 
ATOM     14  C   UNL     1      43.327  20.203  18.438  0.00  0.00    +0.135 C 
ATOM     15  N   UNL     1      41.802  19.857  20.295  0.00  0.00    -0.508 NA
ATOM     16  C   UNL     1      41.399  19.310  21.586  0.00  0.00    +0.150 C 
ATOM     17  C   UNL     1      39.872  19.288  21.668  0.00  0.00    +0.057 C 
ATOM     18  C   UNL     1      41.930  17.889  21.775  0.00  0.00    +0.075 C 
ATOM     19  C   UNL     1      45.259  18.716  20.157  0.00  0.00    +0.168 A 
BRANCH   7   8
ATOM      8  O   UNL     1      46.447  16.174  22.505  0.00  0.00    -0.485 OA
ATOM      9  H   UNL     1      46.070  15.302  22.687  0.00  0.00    +0.389 HD
ENDBRANCH   7   8
BRANCH  19  20
ATOM     20  O   UNL     1      45.743  19.545  19.197  0.00  0.00    -0.323 OA
ATOM     21  C   UNL     1      46.232  18.935  18.000  0.00  0.00    +0.235 C 
ENDBRANCH  19  20
ENDBRANCH   5   6
BRANCH  57  58
ATOM     58  O   UNL     1      51.634  17.762  19.616  0.00  0.00    -0.462 OA
ATOM     59  H   UNL     1      52.019  16.875  19.635  0.00  0.00    +0.382 HD
ENDBRANCH  57  58
BRANCH  61  62
ATOM     62  O   UNL     1      51.893  20.025  20.608  0.00  0.00    -0.294 OA
ATOM     63  C   UNL     1      52.410  21.163  19.915  0.00  0.00    +0.241 C 
ENDBRANCH  61  62
ENDBRANCH  24  23
BRANCH  50  51
ATOM     51  O   UNL     1      53.171  13.322  20.715  0.00  0.00    -0.291 OA
ATOM     52  C   UNL     1      54.535  13.000  20.994  0.00  0.00    +0.246 C 
ENDBRANCH  50  51
BRANCH  54  55
ATOM     55  O   UNL     1      51.568  15.220  20.745  0.00  0.00    -0.464 OA
ATOM     56  H   UNL     1      52.445  14.876  20.960  0.00  0.00    +0.394 HD
ENDBRANCH  54  55
TORSDOF 11
ENDMDL
MODEL 7
REMARK VINA RESULT:      -2.7      2.447      6.279
REMARK  Name = ZINC95485882
REMARK  20 active torsions:
REMARK  status: ('A' for Active; 'I' for Inactive)
REMARK    1  A    between atoms: C1_1  and  C2_2
REMARK    2  A    between atoms: C5_5  and  C36_45
REMARK    3  A    between atoms: C7_7  and  C13_15
REMARK    4  A    between atoms: C8_8  and  O2_14
REMARK    5  A    between atoms: C10_10  and  O1_12
REMARK    6  A    between atoms: O1_12  and  C12_13
REMARK    7  A    between atoms: C15_17  and  C25_29
REMARK    8  A    between atoms: C18_20  and  C24_28
REMARK    9  A    between atoms: C20_22  and  O4_26
REMARK   10  A    between atoms: C22_24  and  O3_25
REMARK   11  A    between atoms: O4_26  and  C23_27
REMARK   12  A    between atoms: C26_30  and  O6_44
REMARK   13  A    between atoms: C28_32  and  O5_43
REMARK   14  A    between atoms: C32_36  and  C35_42
REMARK   15  A    between atoms: C33_39  and  C34_41
REMARK   16  A    between atoms: C37_46  and  O8_60
REMARK   17  A    between atoms: C41_50  and  O7_51
REMARK   18  A    between atoms: O7_51  and  C42_52
REMARK   19  A    between atoms: C43_53  and  C47_59
REMARK   20  A    between atoms: C44_55  and  C46_58
REMARK                            x       y       z     vdW  Elec       q    Type
REMARK                         _______ _______ _______ _____ _____    ______ ____
ROOT
ATOM     24  C   UNL     1      50.639  15.957  19.790  0.00  0.00    -0.092 A 
ATOM     25  C   UNL     1      50.274  15.383  18.566  0.00  0.00    +0.074 A 
ATOM     26  C   UNL     1      50.941  14.274  18.082  0.00  0.00    -0.083 A 
ATOM     45  C   UNL     1      52.004  13.711  18.831  0.00  0.00    +0.031 A 
ATOM     46  C   UNL     1      52.698  12.587  18.363  0.00  0.00    -0.045 A 
ATOM     47  C   UNL     1      53.718  12.061  19.098  0.00  0.00    -0.017 A 
ATOM     48  C   UNL     1      54.456  10.851  18.584  0.00  0.00    +0.094 C 
ATOM     49  C   UNL     1      54.088  12.624  20.316  0.00  0.00    -0.099 A 
ATOM     50  C   UNL     1      53.431  13.728  20.809  0.00  0.00    +0.172 A 
ATOM     53  C   UNL     1      52.372  14.293  20.067  0.00  0.00    -0.107 A 
ATOM     54  C   UNL     1      51.682  15.426  20.538  0.00  0.00    +0.202 A 
ENDROOT
BRANCH  26  27
ATOM     27  C   UNL     1      50.545  13.676  16.787  0.00  0.00    -0.054 A 
ATOM     28  C   UNL     1      51.317  13.910  15.644  0.00  0.00    +0.172 A 
ATOM     31  C   UNL     1      50.940  13.348  14.437  0.00  0.00    -0.018 A 
ATOM     32  C   UNL     1      49.803  12.560  14.367  0.00  0.00    +0.160 A 
ATOM     35  C   UNL     1      49.031  12.324  15.504  0.00  0.00    -0.165 A 
ATOM     36  C   UNL     1      47.802  11.463  15.371  0.00  0.00    +0.239 C 
ATOM     37  C   UNL     1      48.115  10.277  14.458  0.00  0.00    +0.093 C 
ATOM     38  N   UNL     1      47.389  10.952  16.685  0.00  0.00    -0.504 N 
ATOM     39  H   UNL     1      46.513  10.461  16.594  0.00  0.00    +0.432 HD
ATOM     40  H   UNL     1      48.092  10.327  17.048  0.00  0.00    +0.429 HD
ATOM     41  C   UNL     1      47.221  12.090  17.601  0.00  0.00    +0.179 C 
ATOM     42  C   UNL     1      46.403  13.188  16.919  0.00  0.00    +0.089 C 
ATOM     43  C   UNL     1      48.605  12.631  17.965  0.00  0.00    +0.133 C 
ATOM     44  C   UNL     1      49.404  12.873  16.709  0.00  0.00    -0.038 A 
BRANCH  28  29
ATOM     29  O   UNL     1      52.430  14.686  15.719  0.00  0.00    -0.480 OA
ATOM     30  H   UNL     1      52.736  14.848  16.621  0.00  0.00    +0.402 HD
ENDBRANCH  28  29
BRANCH  32  33
ATOM     33  O   UNL     1      49.436  12.011  13.179  0.00  0.00    -0.490 OA
ATOM     34  H   UNL     1      50.132  11.491  12.754  0.00  0.00    +0.401 HD
ENDBRANCH  32  33
ENDBRANCH  26  27
BRANCH  24  23
ATOM      1  C   UNL     1      47.772  22.859  22.505  0.00  0.00    +0.095 C 
ATOM      2  C   UNL     1      48.520  21.652  21.999  0.00  0.00    -0.023 A 
ATOM      3  C   UNL     1      47.832  20.513  21.704  0.00  0.00    -0.032 A 
ATOM      4  C   UNL     1      48.516  19.384  21.231  0.00  0.00    +0.028 A 
ATOM      5  C   UNL     1      47.821  18.189  20.917  0.00  0.00    -0.040 A 
ATOM     22  C   UNL     1      48.521  17.092  20.453  0.00  0.00    +0.068 A 
ATOM     23  C   UNL     1      49.910  17.148  20.289  0.00  0.00    -0.094 A 
ATOM     57  C   UNL     1      50.611  18.308  20.590  0.00  0.00    +0.183 A 
ATOM     60  C   UNL     1      49.921  19.440  21.065  0.00  0.00    -0.103 A 
ATOM     61  C   UNL     1      50.607  20.631  21.377  0.00  0.00    +0.163 A 
ATOM     64  C   UNL     1      49.899  21.720  21.834  0.00  0.00    -0.095 A 
BRANCH   5   6
ATOM      6  C   UNL     1      46.352  18.118  21.087  0.00  0.00    -0.105 A 
ATOM      7  C   UNL     1      45.787  17.119  21.887  0.00  0.00    +0.153 A 
ATOM     10  C   UNL     1      44.410  17.048  22.051  0.00  0.00    -0.010 A 
ATOM     11  C   UNL     1      43.592  17.961  21.428  0.00  0.00    -0.029 A 
ATOM     12  C   UNL     1      44.143  18.969  20.623  0.00  0.00    -0.136 A 
ATOM     13  C   UNL     1      43.234  19.925  19.972  0.00  0.00    +0.219 C 
ATOM     14  C   UNL     1      43.708  20.735  18.793  0.00  0.00    +0.135 C 
ATOM     15  N   UNL     1      42.029  20.071  20.416  0.00  0.00    -0.508 NA
ATOM     16  C   UNL     1      41.527  19.324  21.564  0.00  0.00    +0.150 C 
ATOM     17  C   UNL     1      40.001  19.250  21.488  0.00  0.00    +0.057 C 
ATOM     18  C   UNL     1      42.095  17.905  21.591  0.00  0.00    +0.075 C 
ATOM     19  C   UNL     1      45.527  19.053  20.455  0.00  0.00    +0.168 A 
BRANCH   7   8
ATOM      8  O   UNL     1      46.588  16.214  22.505  0.00  0.00    -0.485 OA
ATOM      9  H   UNL     1      46.696  15.386  22.017  0.00  0.00    +0.389 HD
ENDBRANCH   7   8
BRANCH  19  20
ATOM     20  O   UNL     1      46.065  20.030  19.683  0.00  0.00    -0.323 OA
ATOM     21  C   UNL     1      46.332  19.704  18.317  0.00  0.00    +0.235 C 
ENDBRANCH  19  20
ENDBRANCH   5   6
BRANCH  57  58
ATOM     58  O   UNL     1      51.959  18.352  20.428  0.00  0.00    -0.462 OA
ATOM     59  H   UNL     1      52.240  18.657  19.554  0.00  0.00    +0.382 HD
ENDBRANCH  57  58
BRANCH  61  62
ATOM     62  O   UNL     1      51.955  20.705  21.225  0.00  0.00    -0.294 OA
ATOM     63  C   UNL     1      52.457  21.756  20.397  0.00  0.00    +0.241 C 
ENDBRANCH  61  62
ENDBRANCH  24  23
BRANCH  50  51
ATOM     51  O   UNL     1      53.799  14.270  21.998  0.00  0.00    -0.291 OA
ATOM     52  C   UNL     1      55.198  14.460  22.219  0.00  0.00    +0.246 C 
ENDBRANCH  50  51
BRANCH  54  55
ATOM     55  O   UNL     1      52.031  15.994  21.720  0.00  0.00    -0.464 OA
ATOM     56  H   UNL     1      52.813  16.560  21.670  0.00  0.00    +0.394 HD
ENDBRANCH  54  55
TORSDOF 11
ENDMDL
MODEL 8
REMARK VINA RESULT:      -2.7      2.599      6.316
REMARK  Name = ZINC95485882
REMARK  20 active torsions:
REMARK  status: ('A' for Active; 'I' for Inactive)
REMARK    1  A    between atoms: C1_1  and  C2_2
REMARK    2  A    between atoms: C5_5  and  C36_45
REMARK    3  A    between atoms: C7_7  and  C13_15
REMARK    4  A    between atoms: C8_8  and  O2_14
REMARK    5  A    between atoms: C10_10  and  O1_12
REMARK    6  A    between atoms: O1_12  and  C12_13
REMARK    7  A    between atoms: C15_17  and  C25_29
REMARK    8  A    between atoms: C18_20  and  C24_28
REMARK    9  A    between atoms: C20_22  and  O4_26
REMARK   10  A    between atoms: C22_24  and  O3_25
REMARK   11  A    between atoms: O4_26  and  C23_27
REMARK   12  A    between atoms: C26_30  and  O6_44
REMARK   13  A    between atoms: C28_32  and  O5_43
REMARK   14  A    between atoms: C32_36  and  C35_42
REMARK   15  A    between atoms: C33_39  and  C34_41
REMARK   16  A    between atoms: C37_46  and  O8_60
REMARK   17  A    between atoms: C41_50  and  O7_51
REMARK   18  A    between atoms: O7_51  and  C42_52
REMARK   19  A    between atoms: C43_53  and  C47_59
REMARK   20  A    between atoms: C44_55  and  C46_58
REMARK                            x       y       z     vdW  Elec       q    Type
REMARK                         _______ _______ _______ _____ _____    ______ ____
ROOT
ATOM     24  C   UNL     1      49.571  16.155  19.965  0.00  0.00    -0.092 A 
ATOM     25  C   UNL     1      48.931  15.501  18.906  0.00  0.00    +0.074 A 
ATOM     26  C   UNL     1      49.310  14.226  18.533  0.00  0.00    -0.083 A 
ATOM     45  C   UNL     1      50.358  13.573  19.229  0.00  0.00    +0.031 A 
ATOM     46  C   UNL     1      50.764  12.280  18.871  0.00  0.00    -0.045 A 
ATOM     47  C   UNL     1      51.773  11.669  19.553  0.00  0.00    -0.017 A 
ATOM     48  C   UNL     1      52.199  10.278  19.159  0.00  0.00    +0.094 C 
ATOM     49  C   UNL     1      52.416  12.310  20.607  0.00  0.00    -0.099 A 
ATOM     50  C   UNL     1      52.046  13.581  20.988  0.00  0.00    +0.172 A 
ATOM     53  C   UNL     1      51.005  14.236  20.299  0.00  0.00    -0.107 A 
ATOM     54  C   UNL     1      50.605  15.537  20.658  0.00  0.00    +0.202 A 
ENDROOT
BRANCH  26  27
ATOM     27  C   UNL     1      48.624  13.545  17.412  0.00  0.00    -0.054 A 
ATOM     28  C   UNL     1      47.348  13.002  17.599  0.00  0.00    +0.172 A 
ATOM     31  C   UNL     1      46.714  12.367  16.547  0.00  0.00    -0.018 A 
ATOM     32  C   UNL     1      47.345  12.269  15.317  0.00  0.00    +0.160 A 
ATOM     35  C   UNL     1      48.616  12.807  15.127  0.00  0.00    -0.165 A 
ATOM     36  C   UNL     1      49.258  12.670  13.771  0.00  0.00    +0.239 C 
ATOM     37  C   UNL     1      48.205  12.914  12.688  0.00  0.00    +0.093 C 
ATOM     38  N   UNL     1      50.337  13.653  13.611  0.00  0.00    -0.504 N 
ATOM     39  H   UNL     1      50.820  13.484  12.742  0.00  0.00    +0.432 HD
ATOM     40  H   UNL     1      49.956  14.587  13.611  0.00  0.00    +0.429 HD
ATOM     41  C   UNL     1      51.278  13.505  14.732  0.00  0.00    +0.179 C 
ATOM     42  C   UNL     1      51.617  12.026  14.932  0.00  0.00    +0.089 C 
ATOM     43  C   UNL     1      50.619  14.057  15.998  0.00  0.00    +0.133 C 
ATOM     44  C   UNL     1      49.250  13.449  16.166  0.00  0.00    -0.038 A 
BRANCH  28  29
ATOM     29  O   UNL     1      46.736  13.100  18.808  0.00  0.00    -0.480 OA
ATOM     30  H   UNL     1      46.786  13.980  19.205  0.00  0.00    +0.402 HD
ENDBRANCH  28  29
BRANCH  32  33
ATOM     33  O   UNL     1      46.717  11.642  14.287  0.00  0.00    -0.490 OA
ATOM     34  H   UNL     1      45.786  11.883  14.188  0.00  0.00    +0.401 HD
ENDBRANCH  32  33
ENDBRANCH  26  27
BRANCH  24  23
ATOM      1  C   UNL     1      48.350  23.590  22.505  0.00  0.00    +0.095 C 
ATOM      2  C   UNL     1      48.787  22.200  22.120  0.00  0.00    -0.023 A 
ATOM      3  C   UNL     1      47.934  21.398  21.422  0.00  0.00    -0.032 A 
ATOM      4  C   UNL     1      48.329  20.103  21.058  0.00  0.00    +0.028 A 
ATOM      5  C   UNL     1      47.459  19.253  20.331  0.00  0.00    -0.040 A 
ATOM     22  C   UNL     1      47.875  17.981  19.985  0.00  0.00    +0.068 A 
ATOM     23  C   UNL     1      49.149  17.524  20.346  0.00  0.00    -0.094 A 
ATOM     57  C   UNL     1      50.017  18.340  21.059  0.00  0.00    +0.183 A 
ATOM     60  C   UNL     1      49.617  19.640  21.422  0.00  0.00    -0.103 A 
ATOM     61  C   UNL     1      50.479  20.490  22.145  0.00  0.00    +0.163 A 
ATOM     64  C   UNL     1      50.055  21.757  22.479  0.00  0.00    -0.095 A 
BRANCH   5   6
ATOM      6  C   UNL     1      46.110  19.725  19.945  0.00  0.00    -0.105 A 
ATOM      7  C   UNL     1      45.966  20.684  18.936  0.00  0.00    +0.153 A 
ATOM     10  C   UNL     1      44.702  21.131  18.570  0.00  0.00    -0.010 A 
ATOM     11  C   UNL     1      43.585  20.631  19.196  0.00  0.00    -0.029 A 
ATOM     12  C   UNL     1      43.712  19.670  20.209  0.00  0.00    -0.136 A 
ATOM     13  C   UNL     1      42.493  19.163  20.857  0.00  0.00    +0.219 C 
ATOM     14  C   UNL     1      42.577  18.478  22.196  0.00  0.00    +0.135 C 
ATOM     15  N   UNL     1      41.349  19.304  20.272  0.00  0.00    -0.508 NA
ATOM     16  C   UNL     1      41.215  19.944  18.968  0.00  0.00    +0.150 C 
ATOM     17  C   UNL     1      39.791  20.481  18.815  0.00  0.00    +0.057 C 
ATOM     18  C   UNL     1      42.204  21.100  18.816  0.00  0.00    +0.075 C 
ATOM     19  C   UNL     1      44.978  19.210  20.582  0.00  0.00    +0.168 A 
BRANCH   7   8
ATOM      8  O   UNL     1      47.064  21.181  18.313  0.00  0.00    -0.485 OA
ATOM      9  H   UNL     1      47.663  21.665  18.899  0.00  0.00    +0.389 HD
ENDBRANCH   7   8
BRANCH  19  20
ATOM     20  O   UNL     1      45.107  18.275  21.557  0.00  0.00    -0.323 OA
ATOM     21  C   UNL     1      45.422  16.944  21.140  0.00  0.00    +0.235 C 
ENDBRANCH  19  20
ENDBRANCH   5   6
BRANCH  57  58
ATOM     58  O   UNL     1      51.249  17.886  21.404  0.00  0.00    -0.462 OA
ATOM     59  H   UNL     1      51.646  17.291  20.753  0.00  0.00    +0.382 HD
ENDBRANCH  57  58
BRANCH  61  62
ATOM     62  O   UNL     1      51.718  20.065  22.504  0.00  0.00    -0.294 OA
ATOM     63  C   UNL     1      52.829  20.685  21.855  0.00  0.00    +0.241 C 
ENDBRANCH  61  62
ENDBRANCH  24  23
BRANCH  50  51
ATOM     51  O   UNL     1      52.680  14.198  22.019  0.00  0.00    -0.291 OA
ATOM     52  C   UNL     1      54.079  13.949  22.163  0.00  0.00    +0.246 C 
ENDBRANCH  50  51
BRANCH  54  55
ATOM     55  O   UNL     1      51.223  16.182  21.679  0.00  0.00    -0.464 OA
ATOM     56  H   UNL     1      51.030  15.815  22.552  0.00  0.00    +0.394 HD
ENDBRANCH  54  55
TORSDOF 11
ENDMDL
MODEL 9
REMARK VINA RESULT:      -2.5      2.419     10.298
REMARK  Name = ZINC95485882
REMARK  20 active torsions:
REMARK  status: ('A' for Active; 'I' for Inactive)
REMARK    1  A    between atoms: C1_1  and  C2_2
REMARK    2  A    between atoms: C5_5  and  C36_45
REMARK    3  A    between atoms: C7_7  and  C13_15
REMARK    4  A    between atoms: C8_8  and  O2_14
REMARK    5  A    between atoms: C10_10  and  O1_12
REMARK    6  A    between atoms: O1_12  and  C12_13
REMARK    7  A    between atoms: C15_17  and  C25_29
REMARK    8  A    between atoms: C18_20  and  C24_28
REMARK    9  A    between atoms: C20_22  and  O4_26
REMARK   10  A    between atoms: C22_24  and  O3_25
REMARK   11  A    between atoms: O4_26  and  C23_27
REMARK   12  A    between atoms: C26_30  and  O6_44
REMARK   13  A    between atoms: C28_32  and  O5_43
REMARK   14  A    between atoms: C32_36  and  C35_42
REMARK   15  A    between atoms: C33_39  and  C34_41
REMARK   16  A    between atoms: C37_46  and  O8_60
REMARK   17  A    between atoms: C41_50  and  O7_51
REMARK   18  A    between atoms: O7_51  and  C42_52
REMARK   19  A    between atoms: C43_53  and  C47_59
REMARK   20  A    between atoms: C44_55  and  C46_58
REMARK                            x       y       z     vdW  Elec       q    Type
REMARK                         _______ _______ _______ _____ _____    ______ ____
ROOT
ATOM     24  C   UNL     1      48.433  16.468  20.784  0.00  0.00    -0.092 A 
ATOM     25  C   UNL     1      48.226  17.853  20.768  0.00  0.00    +0.074 A 
ATOM     26  C   UNL     1      46.994  18.384  21.099  0.00  0.00    -0.083 A 
ATOM     45  C   UNL     1      45.930  17.521  21.458  0.00  0.00    +0.031 A 
ATOM     46  C   UNL     1      44.669  18.033  21.797  0.00  0.00    -0.045 A 
ATOM     47  C   UNL     1      43.659  17.185  22.140  0.00  0.00    -0.017 A 
ATOM     48  C   UNL     1      42.309  17.748  22.503  0.00  0.00    +0.094 C 
ATOM     49  C   UNL     1      43.855  15.807  22.158  0.00  0.00    -0.099 A 
ATOM     50  C   UNL     1      45.078  15.266  21.831  0.00  0.00    +0.172 A 
ATOM     53  C   UNL     1      46.141  16.121  21.472  0.00  0.00    -0.107 A 
ATOM     54  C   UNL     1      47.403  15.602  21.127  0.00  0.00    +0.202 A 
ENDROOT
BRANCH  26  27
ATOM     27  C   UNL     1      46.788  19.850  21.080  0.00  0.00    -0.054 A 
ATOM     28  C   UNL     1      47.654  20.687  21.793  0.00  0.00    +0.172 A 
ATOM     31  C   UNL     1      47.454  22.056  21.770  0.00  0.00    -0.018 A 
ATOM     32  C   UNL     1      46.400  22.589  21.046  0.00  0.00    +0.160 A 
ATOM     35  C   UNL     1      45.535  21.759  20.336  0.00  0.00    -0.165 A 
ATOM     36  C   UNL     1      44.403  22.390  19.568  0.00  0.00    +0.239 C 
ATOM     37  C   UNL     1      44.907  23.659  18.879  0.00  0.00    +0.093 C 
ATOM     38  N   UNL     1      43.897  21.465  18.545  0.00  0.00    -0.504 N 
ATOM     39  H   UNL     1      43.079  21.862  18.108  0.00  0.00    +0.432 HD
ATOM     40  H   UNL     1      44.608  21.301  17.848  0.00  0.00    +0.429 HD
ATOM     41  C   UNL     1      43.540  20.195  19.194  0.00  0.00    +0.179 C 
ATOM     42  C   UNL     1      42.710  20.470  20.450  0.00  0.00    +0.089 C 
ATOM     43  C   UNL     1      44.828  19.465  19.579  0.00  0.00    +0.133 C 
ATOM     44  C   UNL     1      45.732  20.397  20.346  0.00  0.00    -0.038 A 
BRANCH  28  29
ATOM     29  O   UNL     1      48.685  20.158  22.502  0.00  0.00    -0.480 OA
ATOM     30  H   UNL     1      48.447  19.376  23.017  0.00  0.00    +0.402 HD
ENDBRANCH  28  29
BRANCH  32  33
ATOM     33  O   UNL     1      46.208  23.934  21.029  0.00  0.00    -0.490 OA
ATOM     34  H   UNL     1      46.675  24.408  21.731  0.00  0.00    +0.401 HD
ENDBRANCH  32  33
ENDBRANCH  26  27
BRANCH  24  23
ATOM      1  C   UNL     1      55.977  14.199  19.706  0.00  0.00    +0.095 C 
ATOM      2  C   UNL     1      54.629  14.760  20.078  0.00  0.00    -0.023 A 
ATOM      3  C   UNL     1      53.523  14.363  19.387  0.00  0.00    -0.032 A 
ATOM      4  C   UNL     1      52.263  14.877  19.725  0.00  0.00    +0.028 A 
ATOM      5  C   UNL     1      51.100  14.477  19.020  0.00  0.00    -0.040 A 
ATOM     22  C   UNL     1      49.871  14.999  19.374  0.00  0.00    +0.068 A 
ATOM     23  C   UNL     1      49.763  15.921  20.423  0.00  0.00    -0.094 A 
ATOM     57  C   UNL     1      50.889  16.327  21.127  0.00  0.00    +0.183 A 
ATOM     60  C   UNL     1      52.152  15.808  20.785  0.00  0.00    -0.103 A 
ATOM     61  C   UNL     1      53.312  16.202  21.483  0.00  0.00    +0.163 A 
ATOM     64  C   UNL     1      54.531  15.670  21.125  0.00  0.00    -0.095 A 
BRANCH   5   6
ATOM      6  C   UNL     1      51.203  13.504  17.909  0.00  0.00    -0.105 A 
ATOM      7  C   UNL     1      50.982  12.143  18.147  0.00  0.00    +0.153 A 
ATOM     10  C   UNL     1      51.077  11.226  17.107  0.00  0.00    -0.010 A 
ATOM     11  C   UNL     1      51.387  11.651  15.837  0.00  0.00    -0.029 A 
ATOM     12  C   UNL     1      51.611  13.012  15.582  0.00  0.00    -0.136 A 
ATOM     13  C   UNL     1      51.944  13.426  14.210  0.00  0.00    +0.219 C 
ATOM     14  C   UNL     1      52.597  14.761  13.962  0.00  0.00    +0.135 C 
ATOM     15  N   UNL     1      51.671  12.643  13.219  0.00  0.00    -0.508 NA
ATOM     16  C   UNL     1      51.024  11.349  13.405  0.00  0.00    +0.150 C 
ATOM     17  C   UNL     1      51.358  10.445  12.217  0.00  0.00    +0.057 C 
ATOM     18  C   UNL     1      51.496  10.675  14.693  0.00  0.00    +0.075 C 
ATOM     19  C   UNL     1      51.514  13.943  16.619  0.00  0.00    +0.168 A 
BRANCH   7   8
ATOM      8  O   UNL     1      50.675  11.715  19.398  0.00  0.00    -0.485 OA
ATOM      9  H   UNL     1      50.011  12.257  19.846  0.00  0.00    +0.389 HD
ENDBRANCH   7   8
BRANCH  19  20
ATOM     20  O   UNL     1      51.722  15.262  16.377  0.00  0.00    -0.323 OA
ATOM     21  C   UNL     1      50.603  16.136  16.540  0.00  0.00    +0.235 C 
ENDBRANCH  19  20
ENDBRANCH   5   6
BRANCH  57  58
ATOM     58  O   UNL     1      50.772  17.221  22.142  0.00  0.00    -0.462 OA
ATOM     59  H   UNL     1      49.934  17.704  22.147  0.00  0.00    +0.382 HD
ENDBRANCH  57  58
BRANCH  61  62
ATOM     62  O   UNL     1      53.227  17.095  22.504  0.00  0.00    -0.294 OA
ATOM     63  C   UNL     1      54.067  18.248  22.428  0.00  0.00    +0.241 C 
ENDBRANCH  61  62
ENDBRANCH  24  23
BRANCH  50  51
ATOM     51  O   UNL     1      45.259  13.920  21.853  0.00  0.00    -0.291 OA
ATOM     52  C   UNL     1      44.679  13.170  20.784  0.00  0.00    +0.246 C 
ENDBRANCH  50  51
BRANCH  54  55
ATOM     55  O   UNL     1      47.612  14.262  21.133  0.00  0.00    -0.464 OA
ATOM     56  H   UNL     1      46.803  13.735  21.090  0.00  0.00    +0.394 HD
ENDBRANCH  54  55
TORSDOF 11
ENDMDL
