MODEL 1
REMARK VINA RESULT:      -7.5      0.000      0.000
REMARK  Name = ZINC85935026
REMARK  12 active torsions:
REMARK  status: ('A' for Active; 'I' for Inactive)
REMARK    1  A    between atoms: C3_3  and  O11_46
REMARK    2  A    between atoms: C4_4  and  O10_45
REMARK    3  A    between atoms: C6_6  and  C7_7
REMARK    4  A    between atoms: C8_9  and  O9_44
REMARK    5  A    between atoms: C13_15  and  O7_42
REMARK    6  A    between atoms: C14_16  and  C16_19
REMARK    7  A    between atoms: C15_17  and  O1_18
REMARK    8  A    between atoms: C20_24  and  O6_41
REMARK    9  A    between atoms: C23_28  and  C25_33
REMARK   10  A    between atoms: C24_30  and  O3_32
REMARK   11  A    between atoms: C28_36  and  O5_40
REMARK   12  A    between atoms: C29_37  and  O4_39
REMARK                            x       y       z     vdW  Elec       q    Type
REMARK                         _______ _______ _______ _____ _____    ______ ____
ROOT
ATOM     11  C   UNL     1      49.630  12.727  14.780  0.00  0.00    +0.236 C 
ATOM     12  C   UNL     1      48.176  13.146  14.525  0.00  0.00    +0.155 C 
ATOM     15  C   UNL     1      47.497  13.372  15.878  0.00  0.00    +0.076 C 
ATOM     16  C   UNL     1      48.374  14.238  16.747  0.00  0.00    -0.197 A 
ATOM     17  C   UNL     1      49.719  14.410  16.470  0.00  0.00    +0.164 A 
ATOM     18  C   UNL     1      50.497  15.212  17.298  0.00  0.00    -0.048 A 
ATOM     19  C   UNL     1      49.930  15.844  18.393  0.00  0.00    +0.202 A 
ATOM     22  C   UNL     1      48.582  15.674  18.668  0.00  0.00    -0.157 A 
ATOM     47  C   UNL     1      47.806  14.872  17.846  0.00  0.00    +0.161 A 
ATOM     50  O   UNL     1      50.311  13.817  15.401  0.00  0.00    -0.296 OA
ENDROOT
BRANCH  22  23
ATOM     23  C   UNL     1      47.962  16.359  19.859  0.00  0.00    +0.128 C 
ATOM     24  C   UNL     1      47.041  15.398  20.567  0.00  0.00    -0.148 A 
ATOM     25  C   UNL     1      47.451  14.085  20.738  0.00  0.00    +0.057 A 
ATOM     26  C   UNL     1      46.637  13.178  21.383  0.00  0.00    -0.045 A 
ATOM     27  C   UNL     1      45.399  13.579  21.867  0.00  0.00    +0.141 A 
ATOM     30  C   UNL     1      44.986  14.889  21.697  0.00  0.00    -0.039 A 
ATOM     31  C   UNL     1      45.805  15.802  21.044  0.00  0.00    +0.166 A 
ATOM     32  O   UNL     1      45.359  17.075  20.886  0.00  0.00    -0.294 OA
ATOM     33  C   UNL     1      46.318  18.084  20.560  0.00  0.00    +0.195 C 
ATOM     44  C   UNL     1      47.169  17.580  19.387  0.00  0.00    +0.157 C 
BRANCH  33  34
ATOM     34  C   UNL     1      45.606  19.351  20.164  0.00  0.00    -0.087 A 
ATOM     35  C   UNL     1      46.328  20.421  19.669  0.00  0.00    +0.055 A 
ATOM     36  C   UNL     1      45.679  21.587  19.304  0.00  0.00    +0.011 A 
ATOM     37  C   UNL     1      44.303  21.683  19.432  0.00  0.00    +0.090 A 
ATOM     40  C   UNL     1      43.577  20.606  19.929  0.00  0.00    +0.083 A 
ATOM     43  C   UNL     1      44.233  19.439  20.289  0.00  0.00    +0.021 A 
BRANCH  37  38
ATOM     38  O   UNL     1      43.663  22.829  19.073  0.00  0.00    -0.487 OA
ATOM     39  H   UNL     1      43.797  23.081  18.150  0.00  0.00    +0.391 HD
ENDBRANCH  37  38
BRANCH  40  41
ATOM     41  O   UNL     1      42.225  20.696  20.057  0.00  0.00    -0.486 OA
ATOM     42  H   UNL     1      41.785  19.844  20.185  0.00  0.00    +0.390 HD
ENDBRANCH  40  41
ENDBRANCH  33  34
BRANCH  27  28
ATOM     28  O   UNL     1      44.596  12.688  22.505  0.00  0.00    -0.496 OA
ATOM     29  H   UNL     1      43.678  12.699  22.202  0.00  0.00    +0.394 HD
ENDBRANCH  27  28
BRANCH  44  45
ATOM     45  O   UNL     1      46.320  17.212  18.299  0.00  0.00    -0.511 OA
ATOM     46  H   UNL     1      46.669  16.495  17.751  0.00  0.00    +0.368 HD
ENDBRANCH  44  45
ENDBRANCH  22  23
BRANCH  11  10
ATOM      1  C   UNL     1      50.882  11.151  13.295  0.00  0.00    +0.046 A 
ATOM      2  C   UNL     1      51.496  10.837  12.095  0.00  0.00    +0.004 A 
ATOM      3  C   UNL     1      51.526  11.767  11.069  0.00  0.00    +0.087 A 
ATOM      6  C   UNL     1      50.939  13.016  11.248  0.00  0.00    +0.080 A 
ATOM      9  C   UNL     1      50.325  13.323  12.451  0.00  0.00    +0.038 A 
ATOM     10  C   UNL     1      50.298  12.390  13.471  0.00  0.00    -0.072 A 
BRANCH   3   4
ATOM      4  O   UNL     1      52.130  11.460   9.889  0.00  0.00    -0.488 OA
ATOM      5  H   UNL     1      53.095  11.418   9.941  0.00  0.00    +0.389 HD
ENDBRANCH   3   4
BRANCH   6   7
ATOM      7  O   UNL     1      50.967  13.932  10.243  0.00  0.00    -0.486 OA
ATOM      8  H   UNL     1      50.864  14.846  10.542  0.00  0.00    +0.388 HD
ENDBRANCH   6   7
ENDBRANCH  11  10
BRANCH  12  13
ATOM     13  O   UNL     1      47.495  12.112  13.811  0.00  0.00    -0.549 OA
ATOM     14  H   UNL     1      46.586  11.964  14.105  0.00  0.00    +0.387 HD
ENDBRANCH  12  13
BRANCH  19  20
ATOM     20  O   UNL     1      50.696  16.625  19.199  0.00  0.00    -0.455 OA
ATOM     21  H   UNL     1      50.535  17.573  19.094  0.00  0.00    +0.381 HD
ENDBRANCH  19  20
BRANCH  47  48
ATOM     48  O   UNL     1      46.484  14.707  18.115  0.00  0.00    -0.490 OA
ATOM     49  H   UNL     1      46.302  14.052  18.802  0.00  0.00    +0.393 HD
ENDBRANCH  47  48
TORSDOF 12
ENDMDL
MODEL 2
REMARK VINA RESULT:      -7.3      3.480     10.443
REMARK  Name = ZINC85935026
REMARK  12 active torsions:
REMARK  status: ('A' for Active; 'I' for Inactive)
REMARK    1  A    between atoms: C3_3  and  O11_46
REMARK    2  A    between atoms: C4_4  and  O10_45
REMARK    3  A    between atoms: C6_6  and  C7_7
REMARK    4  A    between atoms: C8_9  and  O9_44
REMARK    5  A    between atoms: C13_15  and  O7_42
REMARK    6  A    between atoms: C14_16  and  C16_19
REMARK    7  A    between atoms: C15_17  and  O1_18
REMARK    8  A    between atoms: C20_24  and  O6_41
REMARK    9  A    between atoms: C23_28  and  C25_33
REMARK   10  A    between atoms: C24_30  and  O3_32
REMARK   11  A    between atoms: C28_36  and  O5_40
REMARK   12  A    between atoms: C29_37  and  O4_39
REMARK                            x       y       z     vdW  Elec       q    Type
REMARK                         _______ _______ _______ _____ _____    ______ ____
ROOT
ATOM     11  C   UNL     1      43.549  19.443  19.887  0.00  0.00    +0.236 C 
ATOM     12  C   UNL     1      44.358  20.292  20.877  0.00  0.00    +0.155 C 
ATOM     15  C   UNL     1      45.627  19.520  21.247  0.00  0.00    +0.076 C 
ATOM     16  C   UNL     1      46.294  19.012  19.994  0.00  0.00    -0.197 A 
ATOM     17  C   UNL     1      45.609  18.928  18.795  0.00  0.00    +0.164 A 
ATOM     18  C   UNL     1      46.257  18.449  17.661  0.00  0.00    -0.048 A 
ATOM     19  C   UNL     1      47.585  18.061  17.726  0.00  0.00    +0.202 A 
ATOM     22  C   UNL     1      48.272  18.148  18.927  0.00  0.00    -0.157 A 
ATOM     47  C   UNL     1      47.627  18.623  20.058  0.00  0.00    +0.161 A 
ATOM     50  O   UNL     1      44.309  19.307  18.686  0.00  0.00    -0.296 OA
ENDROOT
BRANCH  22  23
ATOM     23  C   UNL     1      49.718  17.728  19.003  0.00  0.00    +0.128 C 
ATOM     24  C   UNL     1      50.549  18.629  18.125  0.00  0.00    -0.148 A 
ATOM     25  C   UNL     1      50.287  19.990  18.130  0.00  0.00    +0.057 A 
ATOM     26  C   UNL     1      51.028  20.846  17.343  0.00  0.00    -0.045 A 
ATOM     27  C   UNL     1      52.044  20.346  16.540  0.00  0.00    +0.141 A 
ATOM     30  C   UNL     1      52.308  18.986  16.532  0.00  0.00    -0.039 A 
ATOM     31  C   UNL     1      51.558  18.124  17.323  0.00  0.00    +0.166 A 
ATOM     32  O   UNL     1      51.839  16.796  17.278  0.00  0.00    -0.294 OA
ATOM     33  C   UNL     1      51.342  15.972  18.334  0.00  0.00    +0.195 C 
ATOM     44  C   UNL     1      49.851  16.279  18.527  0.00  0.00    +0.157 C 
BRANCH  33  34
ATOM     34  C   UNL     1      51.518  14.520  17.972  0.00  0.00    -0.087 A 
ATOM     35  C   UNL     1      51.678  13.574  18.967  0.00  0.00    +0.055 A 
ATOM     36  C   UNL     1      51.839  12.241  18.639  0.00  0.00    +0.011 A 
ATOM     37  C   UNL     1      51.840  11.850  17.309  0.00  0.00    +0.090 A 
ATOM     40  C   UNL     1      51.679  12.801  16.308  0.00  0.00    +0.083 A 
ATOM     43  C   UNL     1      51.512  14.135  16.644  0.00  0.00    +0.021 A 
BRANCH  37  38
ATOM     38  O   UNL     1      51.999  10.538  16.985  0.00  0.00    -0.487 OA
ATOM     39  H   UNL     1      52.396  10.005  17.687  0.00  0.00    +0.391 HD
ENDBRANCH  37  38
BRANCH  40  41
ATOM     41  O   UNL     1      51.680  12.422  15.001  0.00  0.00    -0.486 OA
ATOM     42  H   UNL     1      52.008  13.100  14.395  0.00  0.00    +0.390 HD
ENDBRANCH  40  41
ENDBRANCH  33  34
BRANCH  27  28
ATOM     28  O   UNL     1      52.777  21.187  15.766  0.00  0.00    -0.496 OA
ATOM     29  H   UNL     1      52.246  21.794  15.233  0.00  0.00    +0.394 HD
ENDBRANCH  27  28
BRANCH  44  45
ATOM     45  O   UNL     1      49.161  16.114  17.287  0.00  0.00    -0.511 OA
ATOM     46  H   UNL     1      49.474  16.695  16.581  0.00  0.00    +0.368 HD
ENDBRANCH  44  45
ENDBRANCH  22  23
BRANCH  11  10
ATOM      1  C   UNL     1      41.060  19.599  20.076  0.00  0.00    +0.046 A 
ATOM      2  C   UNL     1      39.855  20.222  19.802  0.00  0.00    +0.004 A 
ATOM      3  C   UNL     1      39.831  21.375  19.034  0.00  0.00    +0.087 A 
ATOM      6  C   UNL     1      41.019  21.904  18.539  0.00  0.00    +0.080 A 
ATOM      9  C   UNL     1      42.222  21.275  18.818  0.00  0.00    +0.038 A 
ATOM     10  C   UNL     1      42.240  20.125  19.585  0.00  0.00    -0.072 A 
BRANCH   3   4
ATOM      4  O   UNL     1      38.647  21.987  18.763  0.00  0.00    -0.488 OA
ATOM      5  H   UNL     1      38.553  22.274  17.845  0.00  0.00    +0.389 HD
ENDBRANCH   3   4
BRANCH   6   7
ATOM      7  O   UNL     1      40.999  23.034  17.784  0.00  0.00    -0.486 OA
ATOM      8  H   UNL     1      40.535  23.775  18.197  0.00  0.00    +0.388 HD
ENDBRANCH   6   7
ENDBRANCH  11  10
BRANCH  12  13
ATOM     13  O   UNL     1      43.580  20.531  22.052  0.00  0.00    -0.549 OA
ATOM     14  H   UNL     1      42.625  20.533  21.899  0.00  0.00    +0.387 HD
ENDBRANCH  12  13
BRANCH  19  20
ATOM     20  O   UNL     1      48.212  17.593  16.616  0.00  0.00    -0.455 OA
ATOM     21  H   UNL     1      47.705  16.930  16.128  0.00  0.00    +0.381 HD
ENDBRANCH  19  20
BRANCH  47  48
ATOM     48  O   UNL     1      48.301  18.710  21.236  0.00  0.00    -0.490 OA
ATOM     49  H   UNL     1      49.072  18.128  21.290  0.00  0.00    +0.393 HD
ENDBRANCH  47  48
TORSDOF 12
ENDMDL
MODEL 3
REMARK VINA RESULT:      -7.0      2.086      9.857
REMARK  Name = ZINC85935026
REMARK  12 active torsions:
REMARK  status: ('A' for Active; 'I' for Inactive)
REMARK    1  A    between atoms: C3_3  and  O11_46
REMARK    2  A    between atoms: C4_4  and  O10_45
REMARK    3  A    between atoms: C6_6  and  C7_7
REMARK    4  A    between atoms: C8_9  and  O9_44
REMARK    5  A    between atoms: C13_15  and  O7_42
REMARK    6  A    between atoms: C14_16  and  C16_19
REMARK    7  A    between atoms: C15_17  and  O1_18
REMARK    8  A    between atoms: C20_24  and  O6_41
REMARK    9  A    between atoms: C23_28  and  C25_33
REMARK   10  A    between atoms: C24_30  and  O3_32
REMARK   11  A    between atoms: C28_36  and  O5_40
REMARK   12  A    between atoms: C29_37  and  O4_39
REMARK                            x       y       z     vdW  Elec       q    Type
REMARK                         _______ _______ _______ _____ _____    ______ ____
ROOT
ATOM     11  C   UNL     1      44.380  19.355  19.557  0.00  0.00    +0.236 C 
ATOM     12  C   UNL     1      45.327  19.774  18.425  0.00  0.00    +0.155 C 
ATOM     15  C   UNL     1      46.699  19.149  18.692  0.00  0.00    +0.076 C 
ATOM     16  C   UNL     1      46.536  17.685  19.015  0.00  0.00    -0.197 A 
ATOM     17  C   UNL     1      45.313  17.164  19.400  0.00  0.00    +0.164 A 
ATOM     18  C   UNL     1      45.203  15.809  19.695  0.00  0.00    -0.048 A 
ATOM     19  C   UNL     1      46.309  14.980  19.600  0.00  0.00    +0.202 A 
ATOM     22  C   UNL     1      47.532  15.503  19.211  0.00  0.00    -0.157 A 
ATOM     47  C   UNL     1      47.645  16.853  18.919  0.00  0.00    +0.161 A 
ATOM     50  O   UNL     1      44.202  17.940  19.497  0.00  0.00    -0.296 OA
ENDROOT
BRANCH  22  23
ATOM     23  C   UNL     1      48.738  14.604  19.106  0.00  0.00    +0.128 C 
ATOM     24  C   UNL     1      49.949  15.325  19.644  0.00  0.00    -0.148 A 
ATOM     25  C   UNL     1      49.818  16.073  20.803  0.00  0.00    +0.057 A 
ATOM     26  C   UNL     1      50.904  16.743  21.326  0.00  0.00    -0.045 A 
ATOM     27  C   UNL     1      52.136  16.670  20.692  0.00  0.00    +0.141 A 
ATOM     30  C   UNL     1      52.270  15.924  19.532  0.00  0.00    -0.039 A 
ATOM     31  C   UNL     1      51.174  15.251  19.004  0.00  0.00    +0.166 A 
ATOM     32  O   UNL     1      51.342  14.541  17.858  0.00  0.00    -0.294 OA
ATOM     33  C   UNL     1      50.348  13.571  17.522  0.00  0.00    +0.195 C 
ATOM     44  C   UNL     1      48.969  14.232  17.640  0.00  0.00    +0.157 C 
BRANCH  33  34
ATOM     34  C   UNL     1      50.563  13.092  16.110  0.00  0.00    -0.087 A 
ATOM     35  C   UNL     1      49.859  12.000  15.637  0.00  0.00    +0.055 A 
ATOM     36  C   UNL     1      50.053  11.557  14.341  0.00  0.00    +0.011 A 
ATOM     37  C   UNL     1      50.954  12.209  13.514  0.00  0.00    +0.090 A 
ATOM     40  C   UNL     1      51.662  13.307  13.990  0.00  0.00    +0.083 A 
ATOM     43  C   UNL     1      51.459  13.749  15.288  0.00  0.00    +0.021 A 
BRANCH  37  38
ATOM     38  O   UNL     1      51.146  11.774  12.240  0.00  0.00    -0.487 OA
ATOM     39  H   UNL     1      50.545  12.169  11.595  0.00  0.00    +0.391 HD
ENDBRANCH  37  38
BRANCH  40  41
ATOM     41  O   UNL     1      52.547  13.950  13.181  0.00  0.00    -0.486 OA
ATOM     42  H   UNL     1      52.398  13.801  12.237  0.00  0.00    +0.390 HD
ENDBRANCH  40  41
ENDBRANCH  33  34
BRANCH  27  28
ATOM     28  O   UNL     1      53.208  17.327  21.206  0.00  0.00    -0.496 OA
ATOM     29  H   UNL     1      54.058  16.912  21.006  0.00  0.00    +0.394 HD
ENDBRANCH  27  28
BRANCH  44  45
ATOM     45  O   UNL     1      48.928  15.409  16.831  0.00  0.00    -0.511 OA
ATOM     46  H   UNL     1      48.357  16.107  17.179  0.00  0.00    +0.368 HD
ENDBRANCH  44  45
ENDBRANCH  22  23
BRANCH  11  10
ATOM      1  C   UNL     1      41.880  19.351  19.641  0.00  0.00    +0.046 A 
ATOM      2  C   UNL     1      40.655  19.977  19.484  0.00  0.00    +0.004 A 
ATOM      3  C   UNL     1      40.602  21.298  19.069  0.00  0.00    +0.087 A 
ATOM      6  C   UNL     1      41.779  21.992  18.811  0.00  0.00    +0.080 A 
ATOM      9  C   UNL     1      43.001  21.360  18.970  0.00  0.00    +0.038 A 
ATOM     10  C   UNL     1      43.049  20.041  19.385  0.00  0.00    -0.072 A 
BRANCH   3   4
ATOM      4  O   UNL     1      39.398  21.914  18.914  0.00  0.00    -0.488 OA
ATOM      5  H   UNL     1      39.429  22.703  18.357  0.00  0.00    +0.389 HD
ENDBRANCH   3   4
BRANCH   6   7
ATOM      7  O   UNL     1      41.730  23.288  18.402  0.00  0.00    -0.486 OA
ATOM      8  H   UNL     1      42.572  23.757  18.480  0.00  0.00    +0.388 HD
ENDBRANCH   6   7
ENDBRANCH  11  10
BRANCH  12  13
ATOM     13  O   UNL     1      45.444  21.198  18.397  0.00  0.00    -0.549 OA
ATOM     14  H   UNL     1      46.293  21.530  18.719  0.00  0.00    +0.387 HD
ENDBRANCH  12  13
BRANCH  19  20
ATOM     20  O   UNL     1      46.195  13.658  19.891  0.00  0.00    -0.455 OA
ATOM     21  H   UNL     1      46.266  13.079  19.120  0.00  0.00    +0.381 HD
ENDBRANCH  19  20
BRANCH  47  48
ATOM     48  O   UNL     1      48.844  17.365  18.536  0.00  0.00    -0.490 OA
ATOM     49  H   UNL     1      49.523  16.696  18.375  0.00  0.00    +0.393 HD
ENDBRANCH  47  48
TORSDOF 12
ENDMDL
MODEL 4
REMARK VINA RESULT:      -6.6      5.452     10.625
REMARK  Name = ZINC85935026
REMARK  12 active torsions:
REMARK  status: ('A' for Active; 'I' for Inactive)
REMARK    1  A    between atoms: C3_3  and  O11_46
REMARK    2  A    between atoms: C4_4  and  O10_45
REMARK    3  A    between atoms: C6_6  and  C7_7
REMARK    4  A    between atoms: C8_9  and  O9_44
REMARK    5  A    between atoms: C13_15  and  O7_42
REMARK    6  A    between atoms: C14_16  and  C16_19
REMARK    7  A    between atoms: C15_17  and  O1_18
REMARK    8  A    between atoms: C20_24  and  O6_41
REMARK    9  A    between atoms: C23_28  and  C25_33
REMARK   10  A    between atoms: C24_30  and  O3_32
REMARK   11  A    between atoms: C28_36  and  O5_40
REMARK   12  A    between atoms: C29_37  and  O4_39
REMARK                            x       y       z     vdW  Elec       q    Type
REMARK                         _______ _______ _______ _____ _____    ______ ____
ROOT
ATOM     11  C   UNL     1      43.916  20.225  20.367  0.00  0.00    +0.236 C 
ATOM     12  C   UNL     1      44.566  21.456  21.011  0.00  0.00    +0.155 C 
ATOM     15  C   UNL     1      45.908  21.032  21.613  0.00  0.00    +0.076 C 
ATOM     16  C   UNL     1      46.687  20.230  20.602  0.00  0.00    -0.197 A 
ATOM     17  C   UNL     1      46.069  19.659  19.504  0.00  0.00    +0.164 A 
ATOM     18  C   UNL     1      46.820  18.922  18.595  0.00  0.00    -0.048 A 
ATOM     19  C   UNL     1      48.184  18.762  18.781  0.00  0.00    +0.202 A 
ATOM     22  C   UNL     1      48.803  19.337  19.880  0.00  0.00    -0.157 A 
ATOM     47  C   UNL     1      48.055  20.070  20.788  0.00  0.00    +0.161 A 
ATOM     50  O   UNL     1      44.737  19.800  19.278  0.00  0.00    -0.296 OA
ENDROOT
BRANCH  22  23
ATOM     23  C   UNL     1      50.286  19.166  20.087  0.00  0.00    +0.128 C 
ATOM     24  C   UNL     1      51.020  19.607  18.846  0.00  0.00    -0.148 A 
ATOM     25  C   UNL     1      50.602  20.760  18.199  0.00  0.00    +0.057 A 
ATOM     26  C   UNL     1      51.251  21.196  17.063  0.00  0.00    -0.045 A 
ATOM     27  C   UNL     1      52.329  20.480  16.561  0.00  0.00    +0.141 A 
ATOM     30  C   UNL     1      52.748  19.327  17.204  0.00  0.00    -0.039 A 
ATOM     31  C   UNL     1      52.092  18.887  18.348  0.00  0.00    +0.166 A 
ATOM     32  O   UNL     1      52.525  17.745  18.943  0.00  0.00    -0.294 OA
ATOM     33  C   UNL     1      52.112  17.494  20.288  0.00  0.00    +0.195 C 
ATOM     44  C   UNL     1      50.594  17.694  20.371  0.00  0.00    +0.157 C 
BRANCH  33  34
ATOM     34  C   UNL     1      52.461  16.079  20.670  0.00  0.00    -0.087 A 
ATOM     35  C   UNL     1      51.937  15.528  21.824  0.00  0.00    +0.055 A 
ATOM     36  C   UNL     1      52.254  14.229  22.180  0.00  0.00    +0.011 A 
ATOM     37  C   UNL     1      53.096  13.477  21.376  0.00  0.00    +0.090 A 
ATOM     40  C   UNL     1      53.623  14.032  20.214  0.00  0.00    +0.083 A 
ATOM     43  C   UNL     1      53.297  15.332  19.862  0.00  0.00    +0.021 A 
BRANCH  37  38
ATOM     38  O   UNL     1      53.409  12.200  21.725  0.00  0.00    -0.487 OA
ATOM     39  H   UNL     1      54.233  12.119  22.222  0.00  0.00    +0.391 HD
ENDBRANCH  37  38
BRANCH  40  41
ATOM     41  O   UNL     1      54.450  13.298  19.423  0.00  0.00    -0.486 OA
ATOM     42  H   UNL     1      54.562  12.382  19.714  0.00  0.00    +0.390 HD
ENDBRANCH  40  41
ENDBRANCH  33  34
BRANCH  27  28
ATOM     28  O   UNL     1      52.971  20.909  15.443  0.00  0.00    -0.496 OA
ATOM     29  H   UNL     1      52.752  20.406  14.647  0.00  0.00    +0.394 HD
ENDBRANCH  27  28
BRANCH  44  45
ATOM     45  O   UNL     1      49.945  16.870  19.401  0.00  0.00    -0.511 OA
ATOM     46  H   UNL     1      49.630  17.350  18.623  0.00  0.00    +0.368 HD
ENDBRANCH  44  45
ENDBRANCH  22  23
BRANCH  11  10
ATOM      1  C   UNL     1      41.455  19.809  20.212  0.00  0.00    +0.046 A 
ATOM      2  C   UNL     1      40.192  20.133  19.748  0.00  0.00    +0.004 A 
ATOM      3  C   UNL     1      40.019  21.236  18.927  0.00  0.00    +0.087 A 
ATOM      6  C   UNL     1      41.116  22.014  18.571  0.00  0.00    +0.080 A 
ATOM      9  C   UNL     1      42.377  21.684  19.039  0.00  0.00    +0.038 A 
ATOM     10  C   UNL     1      42.544  20.582  19.859  0.00  0.00    -0.072 A 
BRANCH   3   4
ATOM      4  O   UNL     1      38.778  21.555  18.470  0.00  0.00    -0.488 OA
ATOM      5  H   UNL     1      38.105  21.610  19.163  0.00  0.00    +0.389 HD
ENDBRANCH   3   4
BRANCH   6   7
ATOM      7  O   UNL     1      40.950  23.096  17.764  0.00  0.00    -0.486 OA
ATOM      8  H   UNL     1      40.032  23.260  17.510  0.00  0.00    +0.388 HD
ENDBRANCH   6   7
ENDBRANCH  11  10
BRANCH  12  13
ATOM     13  O   UNL     1      43.716  21.967  22.040  0.00  0.00    -0.549 OA
ATOM     14  H   UNL     1      43.057  22.602  21.727  0.00  0.00    +0.387 HD
ENDBRANCH  12  13
BRANCH  19  20
ATOM     20  O   UNL     1      48.912  18.039  17.891  0.00  0.00    -0.455 OA
ATOM     21  H   UNL     1      48.936  18.420  17.002  0.00  0.00    +0.381 HD
ENDBRANCH  19  20
BRANCH  47  48
ATOM     48  O   UNL     1      48.663  20.635  21.865  0.00  0.00    -0.490 OA
ATOM     49  H   UNL     1      49.572  20.338  22.003  0.00  0.00    +0.393 HD
ENDBRANCH  47  48
TORSDOF 12
ENDMDL
MODEL 5
REMARK VINA RESULT:      -6.6      2.141     10.009
REMARK  Name = ZINC85935026
REMARK  12 active torsions:
REMARK  status: ('A' for Active; 'I' for Inactive)
REMARK    1  A    between atoms: C3_3  and  O11_46
REMARK    2  A    between atoms: C4_4  and  O10_45
REMARK    3  A    between atoms: C6_6  and  C7_7
REMARK    4  A    between atoms: C8_9  and  O9_44
REMARK    5  A    between atoms: C13_15  and  O7_42
REMARK    6  A    between atoms: C14_16  and  C16_19
REMARK    7  A    between atoms: C15_17  and  O1_18
REMARK    8  A    between atoms: C20_24  and  O6_41
REMARK    9  A    between atoms: C23_28  and  C25_33
REMARK   10  A    between atoms: C24_30  and  O3_32
REMARK   11  A    between atoms: C28_36  and  O5_40
REMARK   12  A    between atoms: C29_37  and  O4_39
REMARK                            x       y       z     vdW  Elec       q    Type
REMARK                         _______ _______ _______ _____ _____    ______ ____
ROOT
ATOM     11  C   UNL     1      46.295  16.893  19.096  0.00  0.00    +0.236 C 
ATOM     12  C   UNL     1      47.393  17.482  18.200  0.00  0.00    +0.155 C 
ATOM     15  C   UNL     1      48.517  16.451  18.077  0.00  0.00    +0.076 C 
ATOM     16  C   UNL     1      47.934  15.102  17.741  0.00  0.00    -0.197 A 
ATOM     17  C   UNL     1      46.593  14.826  17.940  0.00  0.00    +0.164 A 
ATOM     18  C   UNL     1      46.093  13.568  17.622  0.00  0.00    -0.048 A 
ATOM     19  C   UNL     1      46.929  12.593  17.103  0.00  0.00    +0.202 A 
ATOM     22  C   UNL     1      48.272  12.871  16.901  0.00  0.00    -0.157 A 
ATOM     47  C   UNL     1      48.773  14.124  17.219  0.00  0.00    +0.161 A 
ATOM     50  O   UNL     1      45.737  15.756  18.437  0.00  0.00    -0.296 OA
ENDROOT
BRANCH  22  23
ATOM     23  C   UNL     1      49.186  11.814  16.336  0.00  0.00    +0.128 C 
ATOM     24  C   UNL     1      50.460  11.769  17.142  0.00  0.00    -0.148 A 
ATOM     25  C   UNL     1      50.378  11.860  18.523  0.00  0.00    +0.057 A 
ATOM     26  C   UNL     1      51.521  11.820  19.293  0.00  0.00    -0.045 A 
ATOM     27  C   UNL     1      52.762  11.687  18.686  0.00  0.00    +0.141 A 
ATOM     30  C   UNL     1      52.847  11.596  17.307  0.00  0.00    -0.039 A 
ATOM     31  C   UNL     1      51.695  11.639  16.531  0.00  0.00    +0.166 A 
ATOM     32  O   UNL     1      51.820  11.560  15.181  0.00  0.00    -0.294 OA
ATOM     33  C   UNL     1      50.656  11.235  14.420  0.00  0.00    +0.195 C 
ATOM     44  C   UNL     1      49.510  12.147  14.879  0.00  0.00    +0.157 C 
BRANCH  33  34
ATOM     34  C   UNL     1      50.928  11.460  12.955  0.00  0.00    -0.087 A 
ATOM     35  C   UNL     1      51.394  10.420  12.172  0.00  0.00    +0.055 A 
ATOM     36  C   UNL     1      51.645  10.621  10.827  0.00  0.00    +0.011 A 
ATOM     37  C   UNL     1      51.427  11.868  10.261  0.00  0.00    +0.090 A 
ATOM     40  C   UNL     1      50.958  12.914  11.048  0.00  0.00    +0.083 A 
ATOM     43  C   UNL     1      50.703  12.703  12.395  0.00  0.00    +0.021 A 
BRANCH  37  38
ATOM     38  O   UNL     1      51.674  12.067   8.939  0.00  0.00    -0.487 OA
ATOM     39  H   UNL     1      51.057  12.675   8.511  0.00  0.00    +0.391 HD
ENDBRANCH  37  38
BRANCH  40  41
ATOM     41  O   UNL     1      50.743  14.138  10.497  0.00  0.00    -0.486 OA
ATOM     42  H   UNL     1      50.817  14.871  11.124  0.00  0.00    +0.390 HD
ENDBRANCH  40  41
ENDBRANCH  33  34
BRANCH  27  28
ATOM     28  O   UNL     1      53.890  11.645  19.443  0.00  0.00    -0.496 OA
ATOM     29  H   UNL     1      54.601  11.115  19.059  0.00  0.00    +0.394 HD
ENDBRANCH  27  28
BRANCH  44  45
ATOM     45  O   UNL     1      49.910  13.514  14.774  0.00  0.00    -0.511 OA
ATOM     46  H   UNL     1      49.838  13.879  13.881  0.00  0.00    +0.368 HD
ENDBRANCH  44  45
ENDBRANCH  22  23
BRANCH  11  10
ATOM      1  C   UNL     1      45.063  18.967  18.434  0.00  0.00    +0.046 A 
ATOM      2  C   UNL     1      44.078  19.916  18.642  0.00  0.00    +0.004 A 
ATOM      3  C   UNL     1      43.248  19.821  19.747  0.00  0.00    +0.087 A 
ATOM      6  C   UNL     1      43.408  18.772  20.647  0.00  0.00    +0.080 A 
ATOM      9  C   UNL     1      44.396  17.825  20.433  0.00  0.00    +0.038 A 
ATOM     10  C   UNL     1      45.221  17.924  19.327  0.00  0.00    -0.072 A 
BRANCH   3   4
ATOM      4  O   UNL     1      42.279  20.754  19.953  0.00  0.00    -0.488 OA
ATOM      5  H   UNL     1      42.400  21.566  19.442  0.00  0.00    +0.389 HD
ENDBRANCH   3   4
BRANCH   6   7
ATOM      7  O   UNL     1      42.596  18.676  21.734  0.00  0.00    -0.486 OA
ATOM      8  H   UNL     1      42.994  18.211  22.482  0.00  0.00    +0.388 HD
ENDBRANCH   6   7
ENDBRANCH  11  10
BRANCH  12  13
ATOM     13  O   UNL     1      47.901  18.682  18.786  0.00  0.00    -0.549 OA
ATOM     14  H   UNL     1      48.129  19.368  18.144  0.00  0.00    +0.387 HD
ENDBRANCH  12  13
BRANCH  19  20
ATOM     20  O   UNL     1      46.435  11.365  16.796  0.00  0.00    -0.455 OA
ATOM     21  H   UNL     1      46.680  10.674  17.427  0.00  0.00    +0.381 HD
ENDBRANCH  19  20
BRANCH  47  48
ATOM     48  O   UNL     1      50.090  14.397  17.020  0.00  0.00    -0.490 OA
ATOM     49  H   UNL     1      50.689  13.819  17.512  0.00  0.00    +0.393 HD
ENDBRANCH  47  48
TORSDOF 12
ENDMDL
MODEL 6
REMARK VINA RESULT:      -5.5      3.917      8.984
REMARK  Name = ZINC85935026
REMARK  12 active torsions:
REMARK  status: ('A' for Active; 'I' for Inactive)
REMARK    1  A    between atoms: C3_3  and  O11_46
REMARK    2  A    between atoms: C4_4  and  O10_45
REMARK    3  A    between atoms: C6_6  and  C7_7
REMARK    4  A    between atoms: C8_9  and  O9_44
REMARK    5  A    between atoms: C13_15  and  O7_42
REMARK    6  A    between atoms: C14_16  and  C16_19
REMARK    7  A    between atoms: C15_17  and  O1_18
REMARK    8  A    between atoms: C20_24  and  O6_41
REMARK    9  A    between atoms: C23_28  and  C25_33
REMARK   10  A    between atoms: C24_30  and  O3_32
REMARK   11  A    between atoms: C28_36  and  O5_40
REMARK   12  A    between atoms: C29_37  and  O4_39
REMARK                            x       y       z     vdW  Elec       q    Type
REMARK                         _______ _______ _______ _____ _____    ______ ____
ROOT
ATOM     11  C   UNL     1      51.099  18.046  19.306  0.00  0.00    +0.236 C 
ATOM     12  C   UNL     1      50.137  18.301  18.139  0.00  0.00    +0.155 C 
ATOM     15  C   UNL     1      50.140  17.065  17.235  0.00  0.00    +0.076 C 
ATOM     16  C   UNL     1      49.971  15.824  18.074  0.00  0.00    -0.197 A 
ATOM     17  C   UNL     1      50.203  15.837  19.438  0.00  0.00    +0.164 A 
ATOM     18  C   UNL     1      50.042  14.671  20.178  0.00  0.00    -0.048 A 
ATOM     19  C   UNL     1      49.645  13.498  19.556  0.00  0.00    +0.202 A 
ATOM     22  C   UNL     1      49.409  13.486  18.190  0.00  0.00    -0.157 A 
ATOM     47  C   UNL     1      49.572  14.647  17.451  0.00  0.00    +0.161 A 
ATOM     50  O   UNL     1      50.584  16.968  20.087  0.00  0.00    -0.296 OA
ENDROOT
BRANCH  22  23
ATOM     23  C   UNL     1      48.976  12.212  17.510  0.00  0.00    +0.128 C 
ATOM     24  C   UNL     1      49.725  12.059  16.210  0.00  0.00    -0.148 A 
ATOM     25  C   UNL     1      51.077  12.363  16.179  0.00  0.00    +0.057 A 
ATOM     26  C   UNL     1      51.794  12.232  15.009  0.00  0.00    -0.045 A 
ATOM     27  C   UNL     1      51.163  11.793  13.853  0.00  0.00    +0.141 A 
ATOM     30  C   UNL     1      49.812  11.489  13.880  0.00  0.00    -0.039 A 
ATOM     31  C   UNL     1      49.089  11.624  15.059  0.00  0.00    +0.166 A 
ATOM     32  O   UNL     1      47.763  11.328  15.042  0.00  0.00    -0.294 OA
ATOM     33  C   UNL     1      47.111  11.110  16.295  0.00  0.00    +0.195 C 
ATOM     44  C   UNL     1      47.472  12.267  17.235  0.00  0.00    +0.157 C 
BRANCH  33  34
ATOM     34  C   UNL     1      45.619  11.068  16.090  0.00  0.00    -0.087 A 
ATOM     35  C   UNL     1      45.085  10.322  15.056  0.00  0.00    +0.055 A 
ATOM     36  C   UNL     1      43.717  10.279  14.864  0.00  0.00    +0.011 A 
ATOM     37  C   UNL     1      42.877  10.985  15.712  0.00  0.00    +0.090 A 
ATOM     40  C   UNL     1      43.414  11.735  16.752  0.00  0.00    +0.083 A 
ATOM     43  C   UNL     1      44.786  11.769  16.942  0.00  0.00    +0.021 A 
BRANCH  37  38
ATOM     38  O   UNL     1      41.530  10.945  15.524  0.00  0.00    -0.487 OA
ATOM     39  H   UNL     1      41.094  11.801  15.623  0.00  0.00    +0.391 HD
ENDBRANCH  37  38
BRANCH  40  41
ATOM     41  O   UNL     1      42.593  12.430  17.586  0.00  0.00    -0.486 OA
ATOM     42  H   UNL     1      41.747  12.677  17.188  0.00  0.00    +0.390 HD
ENDBRANCH  40  41
ENDBRANCH  33  34
BRANCH  27  28
ATOM     28  O   UNL     1      51.869  11.661  12.700  0.00  0.00    -0.496 OA
ATOM     29  H   UNL     1      52.723  11.222  12.809  0.00  0.00    +0.394 HD
ENDBRANCH  27  28
BRANCH  44  45
ATOM     45  O   UNL     1      47.140  13.511  16.618  0.00  0.00    -0.511 OA
ATOM     46  H   UNL     1      47.725  13.758  15.888  0.00  0.00    +0.368 HD
ENDBRANCH  44  45
ENDBRANCH  22  23
BRANCH  11  10
ATOM      1  C   UNL     1      50.393  19.430  21.267  0.00  0.00    +0.046 A 
ATOM      2  C   UNL     1      50.486  20.566  22.051  0.00  0.00    +0.004 A 
ATOM      3  C   UNL     1      51.393  21.560  21.724  0.00  0.00    +0.087 A 
ATOM      6  C   UNL     1      52.209  21.415  20.607  0.00  0.00    +0.080 A 
ATOM      9  C   UNL     1      52.111  20.275  19.826  0.00  0.00    +0.038 A 
ATOM     10  C   UNL     1      51.204  19.285  20.157  0.00  0.00    -0.072 A 
BRANCH   3   4
ATOM      4  O   UNL     1      51.484  22.678  22.495  0.00  0.00    -0.488 OA
ATOM      5  H   UNL     1      52.372  22.846  22.840  0.00  0.00    +0.389 HD
ENDBRANCH   3   4
BRANCH   6   7
ATOM      7  O   UNL     1      53.100  22.390  20.282  0.00  0.00    -0.486 OA
ATOM      8  H   UNL     1      53.094  22.632  19.346  0.00  0.00    +0.388 HD
ENDBRANCH   6   7
ENDBRANCH  11  10
BRANCH  12  13
ATOM     13  O   UNL     1      50.572  19.442  17.396  0.00  0.00    -0.549 OA
ATOM     14  H   UNL     1      50.222  19.482  16.495  0.00  0.00    +0.387 HD
ENDBRANCH  12  13
BRANCH  19  20
ATOM     20  O   UNL     1      49.490  12.361  20.284  0.00  0.00    -0.455 OA
ATOM     21  H   UNL     1      48.882  12.452  21.031  0.00  0.00    +0.381 HD
ENDBRANCH  19  20
BRANCH  47  48
ATOM     48  O   UNL     1      49.339  14.635  16.112  0.00  0.00    -0.490 OA
ATOM     49  H   UNL     1      48.415  14.791  15.872  0.00  0.00    +0.393 HD
ENDBRANCH  47  48
TORSDOF 12
ENDMDL
MODEL 7
REMARK VINA RESULT:      -5.5      4.175      6.917
REMARK  Name = ZINC85935026
REMARK  12 active torsions:
REMARK  status: ('A' for Active; 'I' for Inactive)
REMARK    1  A    between atoms: C3_3  and  O11_46
REMARK    2  A    between atoms: C4_4  and  O10_45
REMARK    3  A    between atoms: C6_6  and  C7_7
REMARK    4  A    between atoms: C8_9  and  O9_44
REMARK    5  A    between atoms: C13_15  and  O7_42
REMARK    6  A    between atoms: C14_16  and  C16_19
REMARK    7  A    between atoms: C15_17  and  O1_18
REMARK    8  A    between atoms: C20_24  and  O6_41
REMARK    9  A    between atoms: C23_28  and  C25_33
REMARK   10  A    between atoms: C24_30  and  O3_32
REMARK   11  A    between atoms: C28_36  and  O5_40
REMARK   12  A    between atoms: C29_37  and  O4_39
REMARK                            x       y       z     vdW  Elec       q    Type
REMARK                         _______ _______ _______ _____ _____    ______ ____
ROOT
ATOM     11  C   UNL     1      54.080  14.430  20.302  0.00  0.00    +0.236 C 
ATOM     12  C   UNL     1      53.488  15.725  19.731  0.00  0.00    +0.155 C 
ATOM     15  C   UNL     1      52.149  15.390  19.070  0.00  0.00    +0.076 C 
ATOM     16  C   UNL     1      51.318  14.549  20.005  0.00  0.00    -0.197 A 
ATOM     17  C   UNL     1      51.889  13.882  21.075  0.00  0.00    +0.164 A 
ATOM     18  C   UNL     1      51.091  13.111  21.913  0.00  0.00    -0.048 A 
ATOM     19  C   UNL     1      49.728  13.012  21.684  0.00  0.00    +0.202 A 
ATOM     22  C   UNL     1      49.156  13.683  20.615  0.00  0.00    -0.157 A 
ATOM     47  C   UNL     1      49.951  14.450  19.777  0.00  0.00    +0.161 A 
ATOM     50  O   UNL     1      53.219  13.960  21.340  0.00  0.00    -0.296 OA
ENDROOT
BRANCH  22  23
ATOM     23  C   UNL     1      47.674  13.579  20.363  0.00  0.00    +0.128 C 
ATOM     24  C   UNL     1      47.434  13.253  18.910  0.00  0.00    -0.148 A 
ATOM     25  C   UNL     1      48.246  12.313  18.295  0.00  0.00    +0.057 A 
ATOM     26  C   UNL     1      48.054  11.987  16.969  0.00  0.00    -0.045 A 
ATOM     27  C   UNL     1      47.043  12.600  16.243  0.00  0.00    +0.141 A 
ATOM     30  C   UNL     1      46.230  13.540  16.854  0.00  0.00    -0.039 A 
ATOM     31  C   UNL     1      46.426  13.871  18.189  0.00  0.00    +0.166 A 
ATOM     32  O   UNL     1      45.616  14.807  18.750  0.00  0.00    -0.294 OA
ATOM     33  C   UNL     1      45.565  14.878  20.176  0.00  0.00    +0.195 C 
ATOM     44  C   UNL     1      47.004  14.910  20.709  0.00  0.00    +0.157 C 
BRANCH  33  34
ATOM     34  C   UNL     1      44.841  16.131  20.596  0.00  0.00    -0.087 A 
ATOM     35  C   UNL     1      44.293  16.220  21.862  0.00  0.00    +0.055 A 
ATOM     36  C   UNL     1      43.627  17.367  22.252  0.00  0.00    +0.011 A 
ATOM     37  C   UNL     1      43.509  18.432  21.372  0.00  0.00    +0.090 A 
ATOM     40  C   UNL     1      44.060  18.343  20.099  0.00  0.00    +0.083 A 
ATOM     43  C   UNL     1      44.731  17.192  19.717  0.00  0.00    +0.021 A 
BRANCH  37  38
ATOM     38  O   UNL     1      42.854  19.561  21.755  0.00  0.00    -0.487 OA
ATOM     39  H   UNL     1      42.959  19.779  22.690  0.00  0.00    +0.391 HD
ENDBRANCH  37  38
BRANCH  40  41
ATOM     41  O   UNL     1      43.947  19.385  19.233  0.00  0.00    -0.486 OA
ATOM     42  H   UNL     1      43.139  19.368  18.700  0.00  0.00    +0.390 HD
ENDBRANCH  40  41
ENDBRANCH  33  34
BRANCH  27  28
ATOM     28  O   UNL     1      46.851  12.279  14.937  0.00  0.00    -0.496 OA
ATOM     29  H   UNL     1      47.338  12.840  14.318  0.00  0.00    +0.394 HD
ENDBRANCH  27  28
BRANCH  44  45
ATOM     45  O   UNL     1      47.721  15.984  20.099  0.00  0.00    -0.511 OA
ATOM     46  H   UNL     1      48.589  16.151  20.490  0.00  0.00    +0.368 HD
ENDBRANCH  44  45
ENDBRANCH  22  23
BRANCH  11  10
ATOM      1  C   UNL     1      55.753  15.954  21.368  0.00  0.00    +0.046 A 
ATOM      2  C   UNL     1      57.010  16.210  21.886  0.00  0.00    +0.004 A 
ATOM      3  C   UNL     1      57.968  15.210  21.902  0.00  0.00    +0.087 A 
ATOM      6  C   UNL     1      57.665  13.950  21.395  0.00  0.00    +0.080 A 
ATOM      9  C   UNL     1      56.404  13.701  20.878  0.00  0.00    +0.038 A 
ATOM     10  C   UNL     1      55.451  14.703  20.866  0.00  0.00    -0.072 A 
BRANCH   3   4
ATOM      4  O   UNL     1      59.205  15.460  22.411  0.00  0.00    -0.488 OA
ATOM      5  H   UNL     1      59.763  14.675  22.494  0.00  0.00    +0.389 HD
ENDBRANCH   3   4
BRANCH   6   7
ATOM      7  O   UNL     1      58.603  12.966  21.408  0.00  0.00    -0.486 OA
ATOM      8  H   UNL     1      59.504  13.280  21.249  0.00  0.00    +0.388 HD
ENDBRANCH   6   7
ENDBRANCH  11  10
BRANCH  12  13
ATOM     13  O   UNL     1      54.381  16.275  18.760  0.00  0.00    -0.549 OA
ATOM     14  H   UNL     1      54.135  16.082  17.845  0.00  0.00    +0.387 HD
ENDBRANCH  12  13
BRANCH  19  20
ATOM     20  O   UNL     1      48.953  12.256  22.505  0.00  0.00    -0.455 OA
ATOM     21  H   UNL     1      49.229  11.330  22.564  0.00  0.00    +0.381 HD
ENDBRANCH  19  20
BRANCH  47  48
ATOM     48  O   UNL     1      49.390  15.109  18.729  0.00  0.00    -0.490 OA
ATOM     49  H   UNL     1      49.968  15.772  18.327  0.00  0.00    +0.393 HD
ENDBRANCH  47  48
TORSDOF 12
ENDMDL
MODEL 8
REMARK VINA RESULT:      -5.3      2.128      9.781
REMARK  Name = ZINC85935026
REMARK  12 active torsions:
REMARK  status: ('A' for Active; 'I' for Inactive)
REMARK    1  A    between atoms: C3_3  and  O11_46
REMARK    2  A    between atoms: C4_4  and  O10_45
REMARK    3  A    between atoms: C6_6  and  C7_7
REMARK    4  A    between atoms: C8_9  and  O9_44
REMARK    5  A    between atoms: C13_15  and  O7_42
REMARK    6  A    between atoms: C14_16  and  C16_19
REMARK    7  A    between atoms: C15_17  and  O1_18
REMARK    8  A    between atoms: C20_24  and  O6_41
REMARK    9  A    between atoms: C23_28  and  C25_33
REMARK   10  A    between atoms: C24_30  and  O3_32
REMARK   11  A    between atoms: C28_36  and  O5_40
REMARK   12  A    between atoms: C29_37  and  O4_39
REMARK                            x       y       z     vdW  Elec       q    Type
REMARK                         _______ _______ _______ _____ _____    ______ ____
ROOT
ATOM     11  C   UNL     1      45.833  19.671  19.769  0.00  0.00    +0.236 C 
ATOM     12  C   UNL     1      47.058  19.829  18.858  0.00  0.00    +0.155 C 
ATOM     15  C   UNL     1      48.014  18.665  19.132  0.00  0.00    +0.076 C 
ATOM     16  C   UNL     1      47.248  17.366  19.120  0.00  0.00    -0.197 A 
ATOM     17  C   UNL     1      45.871  17.340  19.253  0.00  0.00    +0.164 A 
ATOM     18  C   UNL     1      45.199  16.122  19.242  0.00  0.00    -0.048 A 
ATOM     19  C   UNL     1      45.902  14.938  19.093  0.00  0.00    +0.202 A 
ATOM     22  C   UNL     1      47.281  14.965  18.956  0.00  0.00    -0.157 A 
ATOM     47  C   UNL     1      47.952  16.177  18.969  0.00  0.00    +0.161 A 
ATOM     50  O   UNL     1      45.143  18.479  19.392  0.00  0.00    -0.296 OA
ENDROOT
BRANCH  22  23
ATOM     23  C   UNL     1      48.049  13.678  18.793  0.00  0.00    +0.128 C 
ATOM     24  C   UNL     1      49.212  13.664  19.753  0.00  0.00    -0.148 A 
ATOM     25  C   UNL     1      49.014  14.121  21.046  0.00  0.00    +0.057 A 
ATOM     26  C   UNL     1      50.053  14.119  21.953  0.00  0.00    -0.045 A 
ATOM     27  C   UNL     1      51.305  13.658  21.572  0.00  0.00    +0.141 A 
ATOM     30  C   UNL     1      51.507  13.201  20.281  0.00  0.00    -0.039 A 
ATOM     31  C   UNL     1      50.460  13.206  19.367  0.00  0.00    +0.166 A 
ATOM     32  O   UNL     1      50.700  12.762  18.105  0.00  0.00    -0.294 OA
ATOM     33  C   UNL     1      49.577  12.420  17.292  0.00  0.00    +0.195 C 
ATOM     44  C   UNL     1      48.566  13.572  17.356  0.00  0.00    +0.157 C 
BRANCH  33  34
ATOM     34  C   UNL     1      50.024  12.216  15.868  0.00  0.00    -0.087 A 
ATOM     35  C   UNL     1      49.274  12.734  14.828  0.00  0.00    +0.055 A 
ATOM     36  C   UNL     1      49.681  12.549  13.519  0.00  0.00    +0.011 A 
ATOM     37  C   UNL     1      50.844  11.846  13.248  0.00  0.00    +0.090 A 
ATOM     40  C   UNL     1      51.599  11.326  14.294  0.00  0.00    +0.083 A 
ATOM     43  C   UNL     1      51.188  11.519  15.604  0.00  0.00    +0.021 A 
BRANCH  37  38
ATOM     38  O   UNL     1      51.245  11.664  11.961  0.00  0.00    -0.487 OA
ATOM     39  H   UNL     1      50.906  12.328  11.346  0.00  0.00    +0.391 HD
ENDBRANCH  37  38
BRANCH  40  41
ATOM     41  O   UNL     1      52.741  10.635  14.032  0.00  0.00    -0.486 OA
ATOM     42  H   UNL     1      52.659   9.679  14.156  0.00  0.00    +0.390 HD
ENDBRANCH  40  41
ENDBRANCH  33  34
BRANCH  27  28
ATOM     28  O   UNL     1      52.330  13.654  22.464  0.00  0.00    -0.496 OA
ATOM     29  H   UNL     1      52.100  14.017  23.330  0.00  0.00    +0.394 HD
ENDBRANCH  27  28
BRANCH  44  45
ATOM     45  O   UNL     1      49.204  14.795  16.982  0.00  0.00    -0.511 OA
ATOM     46  H   UNL     1      49.536  14.804  16.074  0.00  0.00    +0.368 HD
ENDBRANCH  44  45
ENDBRANCH  22  23
BRANCH  11  10
ATOM      1  C   UNL     1      45.426  22.138  19.738  0.00  0.00    +0.046 A 
ATOM      2  C   UNL     1      44.592  23.233  19.587  0.00  0.00    +0.004 A 
ATOM      3  C   UNL     1      43.250  23.046  19.301  0.00  0.00    +0.087 A 
ATOM      6  C   UNL     1      42.742  21.757  19.167  0.00  0.00    +0.080 A 
ATOM      9  C   UNL     1      43.582  20.667  19.318  0.00  0.00    +0.038 A 
ATOM     10  C   UNL     1      44.921  20.859  19.604  0.00  0.00    -0.072 A 
BRANCH   3   4
ATOM      4  O   UNL     1      42.429  24.121  19.153  0.00  0.00    -0.488 OA
ATOM      5  H   UNL     1      41.857  24.287  19.914  0.00  0.00    +0.389 HD
ENDBRANCH   3   4
BRANCH   6   7
ATOM      7  O   UNL     1      41.424  21.570  18.887  0.00  0.00    -0.486 OA
ATOM      8  H   UNL     1      41.259  21.171  18.022  0.00  0.00    +0.388 HD
ENDBRANCH   6   7
ENDBRANCH  11  10
BRANCH  12  13
ATOM     13  O   UNL     1      47.713  21.067  19.143  0.00  0.00    -0.549 OA
ATOM     14  H   UNL     1      47.109  21.794  19.349  0.00  0.00    +0.387 HD
ENDBRANCH  12  13
BRANCH  19  20
ATOM     20  O   UNL     1      45.241  13.751  19.085  0.00  0.00    -0.455 OA
ATOM     21  H   UNL     1      45.389  13.224  18.287  0.00  0.00    +0.381 HD
ENDBRANCH  19  20
BRANCH  47  48
ATOM     48  O   UNL     1      49.304  16.204  18.833  0.00  0.00    -0.490 OA
ATOM     49  H   UNL     1      49.783  16.220  19.673  0.00  0.00    +0.393 HD
ENDBRANCH  47  48
TORSDOF 12
ENDMDL
MODEL 9
REMARK VINA RESULT:      -5.2      4.092      6.604
REMARK  Name = ZINC85935026
REMARK  12 active torsions:
REMARK  status: ('A' for Active; 'I' for Inactive)
REMARK    1  A    between atoms: C3_3  and  O11_46
REMARK    2  A    between atoms: C4_4  and  O10_45
REMARK    3  A    between atoms: C6_6  and  C7_7
REMARK    4  A    between atoms: C8_9  and  O9_44
REMARK    5  A    between atoms: C13_15  and  O7_42
REMARK    6  A    between atoms: C14_16  and  C16_19
REMARK    7  A    between atoms: C15_17  and  O1_18
REMARK    8  A    between atoms: C20_24  and  O6_41
REMARK    9  A    between atoms: C23_28  and  C25_33
REMARK   10  A    between atoms: C24_30  and  O3_32
REMARK   11  A    between atoms: C28_36  and  O5_40
REMARK   12  A    between atoms: C29_37  and  O4_39
REMARK                            x       y       z     vdW  Elec       q    Type
REMARK                         _______ _______ _______ _____ _____    ______ ____
ROOT
ATOM     11  C   UNL     1      53.797  14.717  20.323  0.00  0.00    +0.236 C 
ATOM     12  C   UNL     1      53.798  16.142  19.755  0.00  0.00    +0.155 C 
ATOM     15  C   UNL     1      52.443  16.395  19.090  0.00  0.00    +0.076 C 
ATOM     16  C   UNL     1      51.334  15.972  20.019  0.00  0.00    -0.197 A 
ATOM     17  C   UNL     1      51.573  15.126  21.088  0.00  0.00    +0.164 A 
ATOM     18  C   UNL     1      50.523  14.754  21.921  0.00  0.00    -0.048 A 
ATOM     19  C   UNL     1      49.243  15.230  21.689  0.00  0.00    +0.202 A 
ATOM     22  C   UNL     1      49.006  16.081  20.620  0.00  0.00    -0.157 A 
ATOM     47  C   UNL     1      50.050  16.451  19.787  0.00  0.00    +0.161 A 
ATOM     50  O   UNL     1      52.814  14.645  21.356  0.00  0.00    -0.296 OA
ENDROOT
BRANCH  22  23
ATOM     23  C   UNL     1      47.615  16.601  20.364  0.00  0.00    +0.128 C 
ATOM     24  C   UNL     1      47.229  16.319  18.934  0.00  0.00    -0.148 A 
ATOM     25  C   UNL     1      47.551  15.086  18.388  0.00  0.00    +0.057 A 
ATOM     26  C   UNL     1      47.212  14.791  17.084  0.00  0.00    -0.045 A 
ATOM     27  C   UNL     1      46.543  15.730  16.312  0.00  0.00    +0.141 A 
ATOM     30  C   UNL     1      46.219  16.962  16.854  0.00  0.00    -0.039 A 
ATOM     31  C   UNL     1      46.564  17.261  18.167  0.00  0.00    +0.166 A 
ATOM     32  O   UNL     1      46.241  18.485  18.659  0.00  0.00    -0.294 OA
ATOM     33  C   UNL     1      46.255  18.660  20.077  0.00  0.00    +0.195 C 
ATOM     44  C   UNL     1      47.581  18.110  20.618  0.00  0.00    +0.157 C 
BRANCH  33  34
ATOM     34  C   UNL     1      46.141  20.125  20.408  0.00  0.00    -0.087 A 
ATOM     35  C   UNL     1      46.717  20.619  21.564  0.00  0.00    +0.055 A 
ATOM     36  C   UNL     1      46.614  21.963  21.873  0.00  0.00    +0.011 A 
ATOM     37  C   UNL     1      45.934  22.819  21.021  0.00  0.00    +0.090 A 
ATOM     40  C   UNL     1      45.354  22.323  19.858  0.00  0.00    +0.083 A 
ATOM     43  C   UNL     1      45.466  20.975  19.552  0.00  0.00    +0.021 A 
BRANCH  37  38
ATOM     38  O   UNL     1      45.832  24.141  21.323  0.00  0.00    -0.487 OA
ATOM     39  H   UNL     1      45.009  24.380  21.770  0.00  0.00    +0.391 HD
ENDBRANCH  37  38
BRANCH  40  41
ATOM     41  O   UNL     1      44.685  23.159  19.019  0.00  0.00    -0.486 OA
ATOM     42  H   UNL     1      44.274  22.714  18.265  0.00  0.00    +0.390 HD
ENDBRANCH  40  41
ENDBRANCH  33  34
BRANCH  27  28
ATOM     28  O   UNL     1      46.205  15.440  15.028  0.00  0.00    -0.496 OA
ATOM     29  H   UNL     1      46.853  14.892  14.565  0.00  0.00    +0.394 HD
ENDBRANCH  27  28
BRANCH  44  45
ATOM     45  O   UNL     1      48.674  18.737  19.944  0.00  0.00    -0.511 OA
ATOM     46  H   UNL     1      48.730  19.691  20.086  0.00  0.00    +0.368 HD
ENDBRANCH  44  45
ENDBRANCH  22  23
BRANCH  11  10
ATOM      1  C   UNL     1      55.750  15.261  21.788  0.00  0.00    +0.046 A 
ATOM      2  C   UNL     1      56.997  14.971  22.312  0.00  0.00    +0.004 A 
ATOM      3  C   UNL     1      57.651  13.809  21.937  0.00  0.00    +0.087 A 
ATOM      6  C   UNL     1      57.052  12.937  21.033  0.00  0.00    +0.080 A 
ATOM      9  C   UNL     1      55.804  13.234  20.512  0.00  0.00    +0.038 A 
ATOM     10  C   UNL     1      55.155  14.395  20.891  0.00  0.00    -0.072 A 
BRANCH   3   4
ATOM      4  O   UNL     1      58.878  13.522  22.451  0.00  0.00    -0.488 OA
ATOM      5  H   UNL     1      59.014  13.850  23.350  0.00  0.00    +0.389 HD
ENDBRANCH   3   4
BRANCH   6   7
ATOM      7  O   UNL     1      57.692  11.796  20.661  0.00  0.00    -0.486 OA
ATOM      8  H   UNL     1      57.427  11.461  19.793  0.00  0.00    +0.388 HD
ENDBRANCH   6   7
ENDBRANCH  11  10
BRANCH  12  13
ATOM     13  O   UNL     1      54.842  16.274  18.788  0.00  0.00    -0.549 OA
ATOM     14  H   UNL     1      55.569  15.647  18.906  0.00  0.00    +0.387 HD
ENDBRANCH  12  13
BRANCH  19  20
ATOM     20  O   UNL     1      48.222  14.862  22.505  0.00  0.00    -0.455 OA
ATOM     21  H   UNL     1      47.556  14.306  22.076  0.00  0.00    +0.381 HD
ENDBRANCH  19  20
BRANCH  47  48
ATOM     48  O   UNL     1      49.817  17.286  18.740  0.00  0.00    -0.490 OA
ATOM     49  H   UNL     1      50.344  18.096  18.760  0.00  0.00    +0.393 HD
ENDBRANCH  47  48
TORSDOF 12
ENDMDL
