MODEL 1
REMARK VINA RESULT:      -5.7      0.000      0.000
REMARK  Name = ZINC95486232
REMARK  21 active torsions:
REMARK  status: ('A' for Active; 'I' for Inactive)
REMARK    1  A    between atoms: C1_1  and  C2_2
REMARK    2  A    between atoms: C2_2  and  C3_3
REMARK    3  A    between atoms: C2_2  and  C4_4
REMARK    4  A    between atoms: C4_4  and  O2_6
REMARK    5  A    between atoms: O2_6  and  C5_7
REMARK    6  A    between atoms: C6_9  and  O11_56
REMARK    7  A    between atoms: C12_18  and  O7_41
REMARK    8  A    between atoms: C13_20  and  O5_37
REMARK    9  A    between atoms: C14_22  and  C24_36
REMARK   10  A    between atoms: C15_23  and  C20_29
REMARK   11  A    between atoms: O5_37  and  C25_38
REMARK   12  A    between atoms: C25_38  and  C26_40
REMARK   13  A    between atoms: O7_41  and  C27_42
REMARK   14  A    between atoms: C27_42  and  C28_44
REMARK   15  A    between atoms: C31_47  and  O9_52
REMARK   16  A    between atoms: C32_49  and  C33_50
REMARK   17  A    between atoms: C32_49  and  C34_51
REMARK   18  A    between atoms: O9_52  and  C35_53
REMARK   19  A    between atoms: C35_53  and  C36_55
REMARK   20  A    between atoms: O11_56  and  C37_57
REMARK   21  A    between atoms: C37_57  and  C38_59
REMARK                            x       y       z     vdW  Elec       q    Type
REMARK                         _______ _______ _______ _____ _____    ______ ____
ROOT
ATOM      5  C   UNL     1      51.034  17.239  20.124  0.00  0.00    +0.174 C 
ATOM      6  C   UNL     1      51.553  15.813  20.108  0.00  0.00    +0.193 C 
ATOM     11  C   UNL     1      50.400  14.844  20.012  0.00  0.00    +0.028 C 
ATOM     12  C   UNL     1      49.171  15.432  20.653  0.00  0.00    -0.050 C 
ATOM     13  C   UNL     1      48.130  14.368  20.875  0.00  0.00    +0.010 C 
ATOM     14  C   UNL     1      48.056  13.386  20.024  0.00  0.00    -0.064 C 
ATOM     15  C   UNL     1      48.908  13.203  18.819  0.00  0.00    +0.222 C 
ATOM     20  C   UNL     1      49.425  16.324  21.876  0.00  0.00    +0.085 C 
ATOM     21  C   UNL     1      48.559  16.710  19.969  0.00  0.00    +0.078 C 
ATOM     22  C   UNL     1      47.182  16.712  20.658  0.00  0.00    +0.199 C 
ATOM     27  C   UNL     1      46.237  17.890  20.752  0.00  0.00    +0.187 C 
ATOM     32  C   UNL     1      46.910  19.245  20.456  0.00  0.00    -0.024 C 
ATOM     33  C   UNL     1      47.207  19.464  18.974  0.00  0.00    +0.063 C 
ATOM     34  C   UNL     1      45.934  20.325  21.015  0.00  0.00    +0.011 C 
ATOM     41  C   UNL     1      46.357  20.332  22.505  0.00  0.00    +0.060 C 
ATOM     42  C   UNL     1      47.822  19.962  22.465  0.00  0.00    -0.014 C 
ATOM     43  C   UNL     1      48.118  19.369  21.332  0.00  0.00    -0.117 C 
ATOM     44  C   UNL     1      49.474  18.875  20.946  0.00  0.00    +0.097 C 
ATOM     45  C   UNL     1      50.149  14.099  18.734  0.00  0.00    -0.026 C 
ATOM     46  C   UNL     1      51.345  13.163  18.446  0.00  0.00    +0.034 C 
ATOM     47  C   UNL     1      49.993  15.046  17.538  0.00  0.00    +0.059 C 
ATOM     48  C   UNL     1      49.684  17.387  20.887  0.00  0.00    -0.038 C 
ENDROOT
BRANCH  34  35
ATOM     35  C   UNL     1      46.192  21.684  20.361  0.00  0.00    -0.007 C 
ATOM     36  C   UNL     1      46.213  22.826  21.416  0.00  0.00    +0.051 C 
ATOM     37  C   UNL     1      45.712  24.014  20.614  0.00  0.00    +0.479 C 
ATOM     38  O   UNL     1      45.048  23.575  19.534  0.00  0.00    -0.343 OA
ATOM     39  O   UNL     1      45.885  25.175  20.902  0.00  0.00    -0.456 OA
ATOM     40  C   UNL     1      44.979  22.140  19.505  0.00  0.00    +0.251 C 
ENDBRANCH  34  35
BRANCH   5   4
ATOM      4  O   UNL     1      50.873  17.707  18.788  0.00  0.00    -0.322 OA
BRANCH   4   3
ATOM      3  C   UNL     1      51.534  18.826  18.450  0.00  0.00    +0.466 C 
ATOM     49  O   UNL     1      52.555  19.122  19.025  0.00  0.00    -0.502 OA
BRANCH   3   2
ATOM      1  C   UNL     1      50.689  21.097  17.923  0.00  0.00    +0.057 C 
ATOM      2  C   UNL     1      51.002  19.713  17.353  0.00  0.00    +0.027 C 
ATOM     50  C   UNL     1      52.053  19.842  16.248  0.00  0.00    +0.059 C 
ENDBRANCH   3   2
ENDBRANCH   4   3
ENDBRANCH   5   4
BRANCH   6   7
ATOM      7  O   UNL     1      52.483  15.662  19.040  0.00  0.00    -0.333 OA
BRANCH   7   8
ATOM      8  C   UNL     1      53.782  15.586  19.370  0.00  0.00    +0.465 C 
ATOM      9  C   UNL     1      54.395  14.252  19.713  0.00  0.00    +0.153 C 
ATOM     10  O   UNL     1      54.460  16.585  19.393  0.00  0.00    -0.500 OA
ENDBRANCH   7   8
ENDBRANCH   6   7
BRANCH  15  16
ATOM     16  O   UNL     1      48.107  13.424  17.651  0.00  0.00    -0.328 OA
BRANCH  16  17
ATOM     17  C   UNL     1      47.392  12.383  17.196  0.00  0.00    +0.454 C 
ATOM     18  C   UNL     1      45.893  12.491  17.087  0.00  0.00    +0.151 C 
ATOM     19  O   UNL     1      47.950  11.361  16.875  0.00  0.00    -0.514 OA
ENDBRANCH  16  17
ENDBRANCH  15  16
BRANCH  22  23
ATOM     23  O   UNL     1      46.385  15.751  19.912  0.00  0.00    -0.331 OA
BRANCH  23  24
ATOM     24  C   UNL     1      45.483  15.038  20.604  0.00  0.00    +0.455 C 
ATOM     25  C   UNL     1      45.438  15.135  22.108  0.00  0.00    +0.142 C 
ATOM     26  O   UNL     1      44.708  14.317  20.022  0.00  0.00    -0.514 OA
ENDBRANCH  23  24
ENDBRANCH  22  23
BRANCH  27  28
ATOM     28  O   UNL     1      45.161  17.688  19.824  0.00  0.00    -0.332 OA
BRANCH  28  29
ATOM     29  C   UNL     1      43.969  18.214  20.151  0.00  0.00    +0.447 C 
ATOM     30  C   UNL     1      43.350  17.903  21.489  0.00  0.00    +0.152 C 
ATOM     31  O   UNL     1      43.393  18.936  19.373  0.00  0.00    -0.495 OA
ENDBRANCH  28  29
ENDBRANCH  27  28
TORSDOF 12
ENDMDL
MODEL 2
REMARK VINA RESULT:      -5.4      2.027      8.186
REMARK  Name = ZINC95486232
REMARK  21 active torsions:
REMARK  status: ('A' for Active; 'I' for Inactive)
REMARK    1  A    between atoms: C1_1  and  C2_2
REMARK    2  A    between atoms: C2_2  and  C3_3
REMARK    3  A    between atoms: C2_2  and  C4_4
REMARK    4  A    between atoms: C4_4  and  O2_6
REMARK    5  A    between atoms: O2_6  and  C5_7
REMARK    6  A    between atoms: C6_9  and  O11_56
REMARK    7  A    between atoms: C12_18  and  O7_41
REMARK    8  A    between atoms: C13_20  and  O5_37
REMARK    9  A    between atoms: C14_22  and  C24_36
REMARK   10  A    between atoms: C15_23  and  C20_29
REMARK   11  A    between atoms: O5_37  and  C25_38
REMARK   12  A    between atoms: C25_38  and  C26_40
REMARK   13  A    between atoms: O7_41  and  C27_42
REMARK   14  A    between atoms: C27_42  and  C28_44
REMARK   15  A    between atoms: C31_47  and  O9_52
REMARK   16  A    between atoms: C32_49  and  C33_50
REMARK   17  A    between atoms: C32_49  and  C34_51
REMARK   18  A    between atoms: O9_52  and  C35_53
REMARK   19  A    between atoms: C35_53  and  C36_55
REMARK   20  A    between atoms: O11_56  and  C37_57
REMARK   21  A    between atoms: C37_57  and  C38_59
REMARK                            x       y       z     vdW  Elec       q    Type
REMARK                         _______ _______ _______ _____ _____    ______ ____
ROOT
ATOM      5  C   UNL     1      46.567  17.682  20.841  0.00  0.00    +0.174 C 
ATOM      6  C   UNL     1      47.118  18.747  21.770  0.00  0.00    +0.193 C 
ATOM     11  C   UNL     1      48.621  18.813  21.648  0.00  0.00    +0.028 C 
ATOM     12  C   UNL     1      49.172  17.465  21.268  0.00  0.00    -0.050 C 
ATOM     13  C   UNL     1      50.662  17.424  21.479  0.00  0.00    +0.010 C 
ATOM     14  C   UNL     1      51.344  18.518  21.300  0.00  0.00    -0.064 C 
ATOM     15  C   UNL     1      50.793  19.837  20.890  0.00  0.00    +0.222 C 
ATOM     20  C   UNL     1      48.424  16.257  21.849  0.00  0.00    +0.085 C 
ATOM     21  C   UNL     1      48.770  16.910  19.851  0.00  0.00    +0.078 C 
ATOM     22  C   UNL     1      49.820  15.790  19.727  0.00  0.00    +0.199 C 
ATOM     27  C   UNL     1      49.754  14.610  18.783  0.00  0.00    +0.187 C 
ATOM     32  C   UNL     1      48.347  14.362  18.205  0.00  0.00    -0.024 C 
ATOM     33  C   UNL     1      47.941  15.377  17.138  0.00  0.00    +0.063 C 
ATOM     34  C   UNL     1      48.382  12.910  17.638  0.00  0.00    +0.011 C 
ATOM     41  C   UNL     1      48.097  12.104  18.929  0.00  0.00    +0.060 C 
ATOM     42  C   UNL     1      47.241  13.036  19.755  0.00  0.00    -0.014 C 
ATOM     43  C   UNL     1      47.381  14.276  19.345  0.00  0.00    -0.117 C 
ATOM     44  C   UNL     1      46.679  15.461  19.926  0.00  0.00    +0.097 C 
ATOM     45  C   UNL     1      49.268  19.976  20.955  0.00  0.00    -0.026 C 
ATOM     46  C   UNL     1      48.981  21.269  21.753  0.00  0.00    +0.034 C 
ATOM     47  C   UNL     1      48.729  20.171  19.533  0.00  0.00    +0.059 C 
ATOM     48  C   UNL     1      47.503  16.443  20.712  0.00  0.00    -0.038 C 
ENDROOT
BRANCH  34  35
ATOM     35  C   UNL     1      47.273  12.702  16.602  0.00  0.00    -0.007 C 
ATOM     36  C   UNL     1      46.410  11.454  16.940  0.00  0.00    +0.051 C 
ATOM     37  C   UNL     1      45.968  10.988  15.564  0.00  0.00    +0.479 C 
ATOM     38  O   UNL     1      46.797  11.490  14.636  0.00  0.00    -0.343 OA
ATOM     39  O   UNL     1      45.018  10.277  15.339  0.00  0.00    -0.456 OA
ATOM     40  C   UNL     1      47.854  12.257  15.234  0.00  0.00    +0.251 C 
ENDBRANCH  34  35
BRANCH   5   4
ATOM      4  O   UNL     1      46.344  18.239  19.549  0.00  0.00    -0.322 OA
BRANCH   4   3
ATOM      3  C   UNL     1      45.068  18.444  19.185  0.00  0.00    +0.466 C 
ATOM     49  O   UNL     1      44.211  17.662  19.520  0.00  0.00    -0.502 OA
BRANCH   3   2
ATOM      1  C   UNL     1      43.427  20.283  18.909  0.00  0.00    +0.057 C 
ATOM      2  C   UNL     1      44.706  19.651  18.358  0.00  0.00    +0.027 C 
ATOM     50  C   UNL     1      45.846  20.671  18.418  0.00  0.00    +0.059 C 
ENDBRANCH   3   2
ENDBRANCH   4   3
ENDBRANCH   5   4
BRANCH   6   7
ATOM      7  O   UNL     1      46.492  19.994  21.482  0.00  0.00    -0.333 OA
BRANCH   7   8
ATOM      8  C   UNL     1      45.373  20.285  22.164  0.00  0.00    +0.465 C 
ATOM      9  C   UNL     1      45.049  21.717  22.503  0.00  0.00    +0.153 C 
ATOM     10  O   UNL     1      44.626  19.400  22.505  0.00  0.00    -0.500 OA
ENDBRANCH   7   8
ENDBRANCH   6   7
BRANCH  15  16
ATOM     16  O   UNL     1      51.219  20.117  19.551  0.00  0.00    -0.328 OA
BRANCH  16  17
ATOM     17  C   UNL     1      52.291  20.912  19.405  0.00  0.00    +0.454 C 
ATOM     18  C   UNL     1      52.602  21.954  20.447  0.00  0.00    +0.151 C 
ATOM     19  O   UNL     1      53.005  20.791  18.439  0.00  0.00    -0.514 OA
ENDBRANCH  16  17
ENDBRANCH  15  16
BRANCH  22  23
ATOM     23  O   UNL     1      51.033  16.458  19.285  0.00  0.00    -0.331 OA
BRANCH  23  24
ATOM     24  C   UNL     1      52.201  15.941  19.698  0.00  0.00    +0.455 C 
ATOM     25  C   UNL     1      53.496  16.427  19.099  0.00  0.00    +0.142 C 
ATOM     26  O   UNL     1      52.214  15.083  20.548  0.00  0.00    -0.514 OA
ENDBRANCH  23  24
ENDBRANCH  22  23
BRANCH  27  28
ATOM     28  O   UNL     1      50.672  14.838  17.703  0.00  0.00    -0.332 OA
BRANCH  28  29
ATOM     29  C   UNL     1      51.239  13.755  17.148  0.00  0.00    +0.447 C 
ATOM     30  C   UNL     1      51.864  12.699  18.024  0.00  0.00    +0.152 C 
ATOM     31  O   UNL     1      51.250  13.625  15.947  0.00  0.00    -0.495 OA
ENDBRANCH  28  29
ENDBRANCH  27  28
TORSDOF 12
ENDMDL
MODEL 3
REMARK VINA RESULT:      -4.2      1.712      2.217
REMARK  Name = ZINC95486232
REMARK  21 active torsions:
REMARK  status: ('A' for Active; 'I' for Inactive)
REMARK    1  A    between atoms: C1_1  and  C2_2
REMARK    2  A    between atoms: C2_2  and  C3_3
REMARK    3  A    between atoms: C2_2  and  C4_4
REMARK    4  A    between atoms: C4_4  and  O2_6
REMARK    5  A    between atoms: O2_6  and  C5_7
REMARK    6  A    between atoms: C6_9  and  O11_56
REMARK    7  A    between atoms: C12_18  and  O7_41
REMARK    8  A    between atoms: C13_20  and  O5_37
REMARK    9  A    between atoms: C14_22  and  C24_36
REMARK   10  A    between atoms: C15_23  and  C20_29
REMARK   11  A    between atoms: O5_37  and  C25_38
REMARK   12  A    between atoms: C25_38  and  C26_40
REMARK   13  A    between atoms: O7_41  and  C27_42
REMARK   14  A    between atoms: C27_42  and  C28_44
REMARK   15  A    between atoms: C31_47  and  O9_52
REMARK   16  A    between atoms: C32_49  and  C33_50
REMARK   17  A    between atoms: C32_49  and  C34_51
REMARK   18  A    between atoms: O9_52  and  C35_53
REMARK   19  A    between atoms: C35_53  and  C36_55
REMARK   20  A    between atoms: O11_56  and  C37_57
REMARK   21  A    between atoms: C37_57  and  C38_59
REMARK                            x       y       z     vdW  Elec       q    Type
REMARK                         _______ _______ _______ _____ _____    ______ ____
ROOT
ATOM      5  C   UNL     1      51.713  15.479  20.199  0.00  0.00    +0.174 C 
ATOM      6  C   UNL     1      52.090  14.051  19.854  0.00  0.00    +0.193 C 
ATOM     11  C   UNL     1      50.919  13.348  19.210  0.00  0.00    +0.028 C 
ATOM     12  C   UNL     1      49.623  13.925  19.715  0.00  0.00    -0.050 C 
ATOM     13  C   UNL     1      48.470  13.025  19.360  0.00  0.00    +0.010 C 
ATOM     14  C   UNL     1      48.532  12.347  18.251  0.00  0.00    -0.064 C 
ATOM     15  C   UNL     1      49.647  12.373  17.268  0.00  0.00    +0.222 C 
ATOM     20  C   UNL     1      49.631  14.385  21.180  0.00  0.00    +0.085 C 
ATOM     21  C   UNL     1      49.325  15.425  19.347  0.00  0.00    +0.078 C 
ATOM     22  C   UNL     1      47.823  15.458  19.681  0.00  0.00    +0.199 C 
ATOM     27  C   UNL     1      46.995  16.700  19.928  0.00  0.00    +0.187 C 
ATOM     32  C   UNL     1      47.839  17.955  20.224  0.00  0.00    -0.024 C 
ATOM     33  C   UNL     1      48.527  18.529  18.987  0.00  0.00    +0.063 C 
ATOM     34  C   UNL     1      46.851  18.979  20.862  0.00  0.00    +0.011 C 
ATOM     41  C   UNL     1      46.873  18.500  22.335  0.00  0.00    +0.060 C 
ATOM     42  C   UNL     1      48.260  17.922  22.505  0.00  0.00    -0.014 C 
ATOM     43  C   UNL     1      48.785  17.631  21.338  0.00  0.00    -0.117 C 
ATOM     44  C   UNL     1      50.145  17.051  21.125  0.00  0.00    +0.097 C 
ATOM     45  C   UNL     1      50.942  13.043  17.741  0.00  0.00    -0.026 C 
ATOM     46  C   UNL     1      52.085  12.042  17.446  0.00  0.00    +0.034 C 
ATOM     47  C   UNL     1      51.187  14.299  16.896  0.00  0.00    +0.059 C 
ATOM     48  C   UNL     1      50.230  15.626  20.653  0.00  0.00    -0.038 C 
ENDROOT
BRANCH  34  35
ATOM     35  C   UNL     1      47.389  20.407  20.738  0.00  0.00    -0.007 C 
ATOM     36  C   UNL     1      47.561  21.070  22.133  0.00  0.00    +0.051 C 
ATOM     37  C   UNL     1      47.331  22.539  21.821  0.00  0.00    +0.479 C 
ATOM     38  O   UNL     1      46.658  22.648  20.665  0.00  0.00    -0.343 OA
ATOM     39  O   UNL     1      47.698  23.464  22.505  0.00  0.00    -0.456 OA
ATOM     40  C   UNL     1      46.329  21.359  20.123  0.00  0.00    +0.251 C 
ENDBRANCH  34  35
BRANCH   5   4
ATOM      4  O   UNL     1      51.946  16.323  19.074  0.00  0.00    -0.322 OA
BRANCH   4   3
ATOM      3  C   UNL     1      52.672  17.432  19.284  0.00  0.00    +0.466 C 
ATOM     49  O   UNL     1      53.404  17.503  20.243  0.00  0.00    -0.502 OA
BRANCH   3   2
ATOM      1  C   UNL     1      51.603  18.236  17.196  0.00  0.00    +0.057 C 
ATOM      2  C   UNL     1      52.575  18.589  18.323  0.00  0.00    +0.027 C 
ATOM     50  C   UNL     1      52.067  19.827  19.066  0.00  0.00    +0.059 C 
ENDBRANCH   3   2
ENDBRANCH   4   3
ENDBRANCH   5   4
BRANCH   6   7
ATOM      7  O   UNL     1      53.247  14.055  19.024  0.00  0.00    -0.333 OA
BRANCH   7   8
ATOM      8  C   UNL     1      54.403  13.673  19.590  0.00  0.00    +0.465 C 
ATOM      9  C   UNL     1      55.045  14.534  20.647  0.00  0.00    +0.153 C 
ATOM     10  O   UNL     1      54.930  12.640  19.251  0.00  0.00    -0.500 OA
ENDBRANCH   7   8
ENDBRANCH   6   7
BRANCH  15  16
ATOM     16  O   UNL     1      49.199  13.039  16.081  0.00  0.00    -0.328 OA
BRANCH  16  17
ATOM     17  C   UNL     1      49.084  12.295  14.970  0.00  0.00    +0.454 C 
ATOM     18  C   UNL     1      49.467  12.873  13.633  0.00  0.00    +0.151 C 
ATOM     19  O   UNL     1      48.672  11.161  15.043  0.00  0.00    -0.514 OA
ENDBRANCH  16  17
ENDBRANCH  15  16
BRANCH  22  23
ATOM     23  O   UNL     1      47.164  14.888  18.517  0.00  0.00    -0.331 OA
BRANCH  23  24
ATOM     24  C   UNL     1      46.026  14.210  18.731  0.00  0.00    +0.455 C 
ATOM     25  C   UNL     1      45.469  14.091  20.127  0.00  0.00    +0.142 C 
ATOM     26  O   UNL     1      45.448  13.692  17.805  0.00  0.00    -0.514 OA
ENDBRANCH  23  24
ENDBRANCH  22  23
BRANCH  27  28
ATOM     28  O   UNL     1      46.181  16.944  18.770  0.00  0.00    -0.332 OA
BRANCH  28  29
ATOM     29  C   UNL     1      45.095  17.714  18.941  0.00  0.00    +0.447 C 
ATOM     30  C   UNL     1      44.884  18.924  18.068  0.00  0.00    +0.152 C 
ATOM     31  O   UNL     1      44.286  17.439  19.795  0.00  0.00    -0.495 OA
ENDBRANCH  28  29
ENDBRANCH  27  28
TORSDOF 12
ENDMDL
MODEL 4
REMARK VINA RESULT:      -4.2      1.962      3.600
REMARK  Name = ZINC95486232
REMARK  21 active torsions:
REMARK  status: ('A' for Active; 'I' for Inactive)
REMARK    1  A    between atoms: C1_1  and  C2_2
REMARK    2  A    between atoms: C2_2  and  C3_3
REMARK    3  A    between atoms: C2_2  and  C4_4
REMARK    4  A    between atoms: C4_4  and  O2_6
REMARK    5  A    between atoms: O2_6  and  C5_7
REMARK    6  A    between atoms: C6_9  and  O11_56
REMARK    7  A    between atoms: C12_18  and  O7_41
REMARK    8  A    between atoms: C13_20  and  O5_37
REMARK    9  A    between atoms: C14_22  and  C24_36
REMARK   10  A    between atoms: C15_23  and  C20_29
REMARK   11  A    between atoms: O5_37  and  C25_38
REMARK   12  A    between atoms: C25_38  and  C26_40
REMARK   13  A    between atoms: O7_41  and  C27_42
REMARK   14  A    between atoms: C27_42  and  C28_44
REMARK   15  A    between atoms: C31_47  and  O9_52
REMARK   16  A    between atoms: C32_49  and  C33_50
REMARK   17  A    between atoms: C32_49  and  C34_51
REMARK   18  A    between atoms: O9_52  and  C35_53
REMARK   19  A    between atoms: C35_53  and  C36_55
REMARK   20  A    between atoms: O11_56  and  C37_57
REMARK   21  A    between atoms: C37_57  and  C38_59
REMARK                            x       y       z     vdW  Elec       q    Type
REMARK                         _______ _______ _______ _____ _____    ______ ____
ROOT
ATOM      5  C   UNL     1      51.912  16.547  21.315  0.00  0.00    +0.174 C 
ATOM      6  C   UNL     1      52.981  15.483  21.479  0.00  0.00    +0.193 C 
ATOM     11  C   UNL     1      52.468  14.153  20.985  0.00  0.00    +0.028 C 
ATOM     12  C   UNL     1      50.974  14.075  21.155  0.00  0.00    -0.050 C 
ATOM     13  C   UNL     1      50.497  12.656  20.998  0.00  0.00    +0.010 C 
ATOM     14  C   UNL     1      51.134  11.876  20.173  0.00  0.00    -0.064 C 
ATOM     15  C   UNL     1      52.309  12.251  19.342  0.00  0.00    +0.222 C 
ATOM     20  C   UNL     1      50.412  14.791  22.392  0.00  0.00    +0.085 C 
ATOM     21  C   UNL     1      50.111  15.077  20.303  0.00  0.00    +0.078 C 
ATOM     22  C   UNL     1      48.735  14.404  20.467  0.00  0.00    +0.199 C 
ATOM     27  C   UNL     1      47.392  15.058  20.227  0.00  0.00    +0.187 C 
ATOM     32  C   UNL     1      47.455  16.598  20.187  0.00  0.00    -0.024 C 
ATOM     33  C   UNL     1      48.073  17.147  18.903  0.00  0.00    +0.063 C 
ATOM     34  C   UNL     1      45.983  17.078  20.371  0.00  0.00    +0.011 C 
ATOM     41  C   UNL     1      45.868  17.028  21.915  0.00  0.00    +0.060 C 
ATOM     42  C   UNL     1      47.277  17.305  22.390  0.00  0.00    -0.014 C 
ATOM     43  C   UNL     1      48.142  17.071  21.430  0.00  0.00    -0.117 C 
ATOM     44  C   UNL     1      49.622  17.245  21.542  0.00  0.00    +0.097 C 
ATOM     45  C   UNL     1      52.985  13.580  19.697  0.00  0.00    -0.026 C 
ATOM     46  C   UNL     1      54.494  13.276  19.845  0.00  0.00    +0.034 C 
ATOM     47  C   UNL     1      52.812  14.551  18.524  0.00  0.00    +0.059 C 
ATOM     48  C   UNL     1      50.472  16.005  21.558  0.00  0.00    -0.038 C 
ENDROOT
BRANCH  34  35
ATOM     35  C   UNL     1      45.806  18.507  19.851  0.00  0.00    -0.007 C 
ATOM     36  C   UNL     1      44.765  19.293  20.697  0.00  0.00    +0.051 C 
ATOM     37  C   UNL     1      44.185  20.257  19.677  0.00  0.00    +0.479 C 
ATOM     38  O   UNL     1      44.420  19.793  18.440  0.00  0.00    -0.343 OA
ATOM     39  O   UNL     1      43.605  21.284  19.938  0.00  0.00    -0.456 OA
ATOM     40  C   UNL     1      45.092  18.523  18.473  0.00  0.00    +0.251 C 
ENDBRANCH  34  35
BRANCH   5   4
ATOM      4  O   UNL     1      51.989  17.109  20.008  0.00  0.00    -0.322 OA
BRANCH   4   3
ATOM      3  C   UNL     1      52.126  18.442  19.924  0.00  0.00    +0.466 C 
ATOM     49  O   UNL     1      52.564  19.065  20.863  0.00  0.00    -0.502 OA
BRANCH   3   2
ATOM      1  C   UNL     1      51.450  18.139  17.557  0.00  0.00    +0.057 C 
ATOM      2  C   UNL     1      51.733  19.161  18.659  0.00  0.00    +0.027 C 
ATOM     50  C   UNL     1      50.475  19.994  18.917  0.00  0.00    +0.059 C 
ENDBRANCH   3   2
ENDBRANCH   4   3
ENDBRANCH   5   4
BRANCH   6   7
ATOM      7  O   UNL     1      54.165  15.896  20.804  0.00  0.00    -0.333 OA
BRANCH   7   8
ATOM      8  C   UNL     1      55.168  16.364  21.564  0.00  0.00    +0.465 C 
ATOM      9  C   UNL     1      56.592  15.987  21.247  0.00  0.00    +0.153 C 
ATOM     10  O   UNL     1      54.929  17.087  22.502  0.00  0.00    -0.500 OA
ENDBRANCH   7   8
ENDBRANCH   6   7
BRANCH  15  16
ATOM     16  O   UNL     1      51.904  12.301  17.968  0.00  0.00    -0.328 OA
BRANCH  16  17
ATOM     17  C   UNL     1      52.343  11.318  17.166  0.00  0.00    +0.454 C 
ATOM     18  C   UNL     1      53.493  10.448  17.604  0.00  0.00    +0.151 C 
ATOM     19  O   UNL     1      51.817  11.131  16.096  0.00  0.00    -0.514 OA
ENDBRANCH  16  17
ENDBRANCH  15  16
BRANCH  22  23
ATOM     23  O   UNL     1      48.722  13.329  19.488  0.00  0.00    -0.331 OA
BRANCH  23  24
ATOM     24  C   UNL     1      49.079  13.642  18.233  0.00  0.00    +0.455 C 
ATOM     25  C   UNL     1      48.768  12.697  17.101  0.00  0.00    +0.142 C 
ATOM     26  O   UNL     1      49.652  14.682  18.009  0.00  0.00    -0.514 OA
ENDBRANCH  23  24
ENDBRANCH  22  23
BRANCH  27  28
ATOM     28  O   UNL     1      46.866  14.578  18.981  0.00  0.00    -0.332 OA
BRANCH  28  29
ATOM     29  C   UNL     1      45.725  13.872  19.034  0.00  0.00    +0.447 C 
ATOM     30  C   UNL     1      45.332  12.988  17.878  0.00  0.00    +0.152 C 
ATOM     31  O   UNL     1      45.013  13.945  20.007  0.00  0.00    -0.495 OA
ENDBRANCH  28  29
ENDBRANCH  27  28
TORSDOF 12
ENDMDL
MODEL 5
REMARK VINA RESULT:      -4.1      2.192      3.691
REMARK  Name = ZINC95486232
REMARK  21 active torsions:
REMARK  status: ('A' for Active; 'I' for Inactive)
REMARK    1  A    between atoms: C1_1  and  C2_2
REMARK    2  A    between atoms: C2_2  and  C3_3
REMARK    3  A    between atoms: C2_2  and  C4_4
REMARK    4  A    between atoms: C4_4  and  O2_6
REMARK    5  A    between atoms: O2_6  and  C5_7
REMARK    6  A    between atoms: C6_9  and  O11_56
REMARK    7  A    between atoms: C12_18  and  O7_41
REMARK    8  A    between atoms: C13_20  and  O5_37
REMARK    9  A    between atoms: C14_22  and  C24_36
REMARK   10  A    between atoms: C15_23  and  C20_29
REMARK   11  A    between atoms: O5_37  and  C25_38
REMARK   12  A    between atoms: C25_38  and  C26_40
REMARK   13  A    between atoms: O7_41  and  C27_42
REMARK   14  A    between atoms: C27_42  and  C28_44
REMARK   15  A    between atoms: C31_47  and  O9_52
REMARK   16  A    between atoms: C32_49  and  C33_50
REMARK   17  A    between atoms: C32_49  and  C34_51
REMARK   18  A    between atoms: O9_52  and  C35_53
REMARK   19  A    between atoms: C35_53  and  C36_55
REMARK   20  A    between atoms: O11_56  and  C37_57
REMARK   21  A    between atoms: C37_57  and  C38_59
REMARK                            x       y       z     vdW  Elec       q    Type
REMARK                         _______ _______ _______ _____ _____    ______ ____
ROOT
ATOM      5  C   UNL     1      52.159  13.987  20.543  0.00  0.00    +0.174 C 
ATOM      6  C   UNL     1      52.448  12.546  20.165  0.00  0.00    +0.193 C 
ATOM     11  C   UNL     1      51.320  11.996  19.326  0.00  0.00    +0.028 C 
ATOM     12  C   UNL     1      50.025  12.674  19.684  0.00  0.00    -0.050 C 
ATOM     13  C   UNL     1      48.856  11.912  19.120  0.00  0.00    +0.010 C 
ATOM     14  C   UNL     1      49.011  11.285  17.990  0.00  0.00    -0.064 C 
ATOM     15  C   UNL     1      50.252  11.248  17.172  0.00  0.00    +0.222 C 
ATOM     20  C   UNL     1      49.868  13.059  21.162  0.00  0.00    +0.085 C 
ATOM     21  C   UNL     1      49.922  14.212  19.372  0.00  0.00    +0.078 C 
ATOM     22  C   UNL     1      48.396  14.379  19.501  0.00  0.00    +0.199 C 
ATOM     27  C   UNL     1      47.659  15.684  19.709  0.00  0.00    +0.187 C 
ATOM     32  C   UNL     1      48.565  16.832  20.195  0.00  0.00    -0.024 C 
ATOM     33  C   UNL     1      49.472  17.394  19.101  0.00  0.00    +0.063 C 
ATOM     34  C   UNL     1      47.596  17.918  20.754  0.00  0.00    +0.011 C 
ATOM     41  C   UNL     1      47.365  17.368  22.184  0.00  0.00    +0.060 C 
ATOM     42  C   UNL     1      48.654  16.647  22.505  0.00  0.00    -0.014 C 
ATOM     43  C   UNL     1      49.311  16.362  21.404  0.00  0.00    -0.117 C 
ATOM     44  C   UNL     1      50.628  15.660  21.343  0.00  0.00    +0.097 C 
ATOM     45  C   UNL     1      51.523  11.761  17.857  0.00  0.00    -0.026 C 
ATOM     46  C   UNL     1      52.598  10.667  17.659  0.00  0.00    +0.034 C 
ATOM     47  C   UNL     1      51.999  13.026  17.133  0.00  0.00    +0.059 C 
ATOM     48  C   UNL     1      50.647  14.258  20.800  0.00  0.00    -0.038 C 
ENDROOT
BRANCH  34  35
ATOM     35  C   UNL     1      48.275  19.289  20.793  0.00  0.00    -0.007 C 
ATOM     36  C   UNL     1      48.011  20.014  22.143  0.00  0.00    +0.051 C 
ATOM     37  C   UNL     1      48.044  21.476  21.734  0.00  0.00    +0.479 C 
ATOM     38  O   UNL     1      47.830  21.574  20.413  0.00  0.00    -0.343 OA
ATOM     39  O   UNL     1      48.235  22.406  22.481  0.00  0.00    -0.456 OA
ATOM     40  C   UNL     1      47.591  20.287  19.821  0.00  0.00    +0.251 C 
ENDBRANCH  34  35
BRANCH   5   4
ATOM      4  O   UNL     1      52.625  14.856  19.515  0.00  0.00    -0.322 OA
BRANCH   4   3
ATOM      3  C   UNL     1      53.511  15.800  19.870  0.00  0.00    +0.466 C 
ATOM     49  O   UNL     1      53.649  16.788  19.187  0.00  0.00    -0.502 OA
BRANCH   3   2
ATOM      1  C   UNL     1      55.819  15.614  20.758  0.00  0.00    +0.057 C 
ATOM      2  C   UNL     1      54.334  15.629  21.122  0.00  0.00    +0.027 C 
ATOM     50  C   UNL     1      54.054  16.791  22.078  0.00  0.00    +0.059 C 
ENDBRANCH   3   2
ENDBRANCH   4   3
ENDBRANCH   5   4
BRANCH   6   7
ATOM      7  O   UNL     1      53.706  12.475  19.502  0.00  0.00    -0.333 OA
BRANCH   7   8
ATOM      8  C   UNL     1      54.762  12.094  20.239  0.00  0.00    +0.465 C 
ATOM      9  C   UNL     1      56.136  12.055  19.622  0.00  0.00    +0.153 C 
ATOM     10  O   UNL     1      54.611  11.782  21.396  0.00  0.00    -0.500 OA
ENDBRANCH   7   8
ENDBRANCH   6   7
BRANCH  15  16
ATOM     16  O   UNL     1      50.039  12.013  15.978  0.00  0.00    -0.328 OA
BRANCH  16  17
ATOM     17  C   UNL     1      49.742  11.330  14.861  0.00  0.00    +0.454 C 
ATOM     18  C   UNL     1      50.808  11.080  13.826  0.00  0.00    +0.151 C 
ATOM     19  O   UNL     1      48.621  10.915  14.687  0.00  0.00    -0.514 OA
ENDBRANCH  16  17
ENDBRANCH  15  16
BRANCH  22  23
ATOM     23  O   UNL     1      47.859  13.935  18.225  0.00  0.00    -0.331 OA
BRANCH  23  24
ATOM     24  C   UNL     1      46.600  13.470  18.221  0.00  0.00    +0.455 C 
ATOM     25  C   UNL     1      45.887  13.213  19.524  0.00  0.00    +0.142 C 
ATOM     26  O   UNL     1      46.038  13.256  17.173  0.00  0.00    -0.514 OA
ENDBRANCH  23  24
ENDBRANCH  22  23
BRANCH  27  28
ATOM     28  O   UNL     1      47.044  16.064  18.469  0.00  0.00    -0.332 OA
BRANCH  28  29
ATOM     29  C   UNL     1      45.965  16.860  18.544  0.00  0.00    +0.447 C 
ATOM     30  C   UNL     1      45.860  18.071  17.653  0.00  0.00    +0.152 C 
ATOM     31  O   UNL     1      45.080  16.607  19.325  0.00  0.00    -0.495 OA
ENDBRANCH  28  29
ENDBRANCH  27  28
TORSDOF 12
ENDMDL
MODEL 6
REMARK VINA RESULT:      -3.3      2.862      7.912
REMARK  Name = ZINC95486232
REMARK  21 active torsions:
REMARK  status: ('A' for Active; 'I' for Inactive)
REMARK    1  A    between atoms: C1_1  and  C2_2
REMARK    2  A    between atoms: C2_2  and  C3_3
REMARK    3  A    between atoms: C2_2  and  C4_4
REMARK    4  A    between atoms: C4_4  and  O2_6
REMARK    5  A    between atoms: O2_6  and  C5_7
REMARK    6  A    between atoms: C6_9  and  O11_56
REMARK    7  A    between atoms: C12_18  and  O7_41
REMARK    8  A    between atoms: C13_20  and  O5_37
REMARK    9  A    between atoms: C14_22  and  C24_36
REMARK   10  A    between atoms: C15_23  and  C20_29
REMARK   11  A    between atoms: O5_37  and  C25_38
REMARK   12  A    between atoms: C25_38  and  C26_40
REMARK   13  A    between atoms: O7_41  and  C27_42
REMARK   14  A    between atoms: C27_42  and  C28_44
REMARK   15  A    between atoms: C31_47  and  O9_52
REMARK   16  A    between atoms: C32_49  and  C33_50
REMARK   17  A    between atoms: C32_49  and  C34_51
REMARK   18  A    between atoms: O9_52  and  C35_53
REMARK   19  A    between atoms: C35_53  and  C36_55
REMARK   20  A    between atoms: O11_56  and  C37_57
REMARK   21  A    between atoms: C37_57  and  C38_59
REMARK                            x       y       z     vdW  Elec       q    Type
REMARK                         _______ _______ _______ _____ _____    ______ ____
ROOT
ATOM      5  C   UNL     1      49.183  17.438  20.703  0.00  0.00    +0.174 C 
ATOM      6  C   UNL     1      49.966  18.180  21.771  0.00  0.00    +0.193 C 
ATOM     11  C   UNL     1      51.247  17.444  22.079  0.00  0.00    +0.028 C 
ATOM     12  C   UNL     1      51.070  15.967  21.842  0.00  0.00    -0.050 C 
ATOM     13  C   UNL     1      52.201  15.193  22.463  0.00  0.00    +0.010 C 
ATOM     14  C   UNL     1      53.379  15.743  22.505  0.00  0.00    -0.064 C 
ATOM     15  C   UNL     1      53.738  17.088  21.983  0.00  0.00    +0.222 C 
ATOM     20  C   UNL     1      49.676  15.409  22.165  0.00  0.00    +0.085 C 
ATOM     21  C   UNL     1      50.801  15.515  20.359  0.00  0.00    +0.078 C 
ATOM     22  C   UNL     1      51.085  14.010  20.514  0.00  0.00    +0.199 C 
ATOM     27  C   UNL     1      50.638  12.919  19.567  0.00  0.00    +0.187 C 
ATOM     32  C   UNL     1      49.511  13.357  18.611  0.00  0.00    -0.024 C 
ATOM     33  C   UNL     1      49.988  14.281  17.493  0.00  0.00    +0.063 C 
ATOM     34  C   UNL     1      48.907  12.034  18.048  0.00  0.00    +0.011 C 
ATOM     41  C   UNL     1      47.926  11.672  19.191  0.00  0.00    +0.060 C 
ATOM     42  C   UNL     1      47.525  13.013  19.761  0.00  0.00    -0.014 C 
ATOM     43  C   UNL     1      48.400  13.935  19.431  0.00  0.00    -0.117 C 
ATOM     44  C   UNL     1      48.319  15.377  19.814  0.00  0.00    +0.097 C 
ATOM     45  C   UNL     1      52.562  18.001  21.618  0.00  0.00    -0.026 C 
ATOM     46  C   UNL     1      52.820  19.351  22.329  0.00  0.00    +0.034 C 
ATOM     47  C   UNL     1      52.583  18.253  20.106  0.00  0.00    +0.059 C 
ATOM     48  C   UNL     1      49.313  15.890  20.819  0.00  0.00    -0.038 C 
ENDROOT
BRANCH  34  35
ATOM     35  C   UNL     1      48.156  12.291  16.739  0.00  0.00    -0.007 C 
ATOM     36  C   UNL     1      46.870  11.424  16.644  0.00  0.00    +0.051 C 
ATOM     37  C   UNL     1      46.732  11.216  15.145  0.00  0.00    +0.479 C 
ATOM     38  O   UNL     1      47.918  11.430  14.555  0.00  0.00    -0.343 OA
ATOM     39  O   UNL     1      45.714  10.907  14.573  0.00  0.00    -0.456 OA
ATOM     40  C   UNL     1      48.939  11.734  15.520  0.00  0.00    +0.251 C 
ENDBRANCH  34  35
BRANCH   5   4
ATOM      4  O   UNL     1      49.621  17.851  19.412  0.00  0.00    -0.322 OA
BRANCH   4   3
ATOM      3  C   UNL     1      48.915  18.821  18.810  0.00  0.00    +0.466 C 
ATOM     49  O   UNL     1      49.485  19.700  18.208  0.00  0.00    -0.502 OA
BRANCH   3   2
ATOM      1  C   UNL     1      46.892  20.254  18.884  0.00  0.00    +0.057 C 
ATOM      2  C   UNL     1      47.409  18.814  18.887  0.00  0.00    +0.027 C 
ATOM     50  C   UNL     1      46.842  18.066  17.679  0.00  0.00    +0.059 C 
ENDBRANCH   3   2
ENDBRANCH   4   3
ENDBRANCH   5   4
BRANCH   6   7
ATOM      7  O   UNL     1      50.195  19.519  21.343  0.00  0.00    -0.333 OA
BRANCH   7   8
ATOM      8  C   UNL     1      49.526  20.487  21.989  0.00  0.00    +0.465 C 
ATOM      9  C   UNL     1      48.122  20.237  22.475  0.00  0.00    +0.153 C 
ATOM     10  O   UNL     1      50.049  21.559  22.179  0.00  0.00    -0.500 OA
ENDBRANCH   7   8
ENDBRANCH   6   7
BRANCH  15  16
ATOM     16  O   UNL     1      54.564  16.926  20.824  0.00  0.00    -0.328 OA
BRANCH  16  17
ATOM     17  C   UNL     1      55.650  16.147  20.952  0.00  0.00    +0.454 C 
ATOM     18  C   UNL     1      55.980  15.135  19.885  0.00  0.00    +0.151 C 
ATOM     19  O   UNL     1      56.361  16.257  21.922  0.00  0.00    -0.514 OA
ENDBRANCH  16  17
ENDBRANCH  15  16
BRANCH  22  23
ATOM     23  O   UNL     1      52.532  13.890  20.444  0.00  0.00    -0.331 OA
BRANCH  23  24
ATOM     24  C   UNL     1      53.096  12.884  21.131  0.00  0.00    +0.455 C 
ATOM     25  C   UNL     1      52.353  12.242  22.274  0.00  0.00    +0.142 C 
ATOM     26  O   UNL     1      54.200  12.494  20.834  0.00  0.00    -0.514 OA
ENDBRANCH  23  24
ENDBRANCH  22  23
BRANCH  27  28
ATOM     28  O   UNL     1      51.770  12.493  18.793  0.00  0.00    -0.332 OA
BRANCH  28  29
ATOM     29  C   UNL     1      51.922  11.171  18.614  0.00  0.00    +0.447 C 
ATOM     30  C   UNL     1      52.789  10.658  17.493  0.00  0.00    +0.152 C 
ATOM     31  O   UNL     1      51.364  10.393  19.349  0.00  0.00    -0.495 OA
ENDBRANCH  28  29
ENDBRANCH  27  28
TORSDOF 12
ENDMDL
MODEL 7
REMARK VINA RESULT:      -3.0      2.169      8.404
REMARK  Name = ZINC95486232
REMARK  21 active torsions:
REMARK  status: ('A' for Active; 'I' for Inactive)
REMARK    1  A    between atoms: C1_1  and  C2_2
REMARK    2  A    between atoms: C2_2  and  C3_3
REMARK    3  A    between atoms: C2_2  and  C4_4
REMARK    4  A    between atoms: C4_4  and  O2_6
REMARK    5  A    between atoms: O2_6  and  C5_7
REMARK    6  A    between atoms: C6_9  and  O11_56
REMARK    7  A    between atoms: C12_18  and  O7_41
REMARK    8  A    between atoms: C13_20  and  O5_37
REMARK    9  A    between atoms: C14_22  and  C24_36
REMARK   10  A    between atoms: C15_23  and  C20_29
REMARK   11  A    between atoms: O5_37  and  C25_38
REMARK   12  A    between atoms: C25_38  and  C26_40
REMARK   13  A    between atoms: O7_41  and  C27_42
REMARK   14  A    between atoms: C27_42  and  C28_44
REMARK   15  A    between atoms: C31_47  and  O9_52
REMARK   16  A    between atoms: C32_49  and  C33_50
REMARK   17  A    between atoms: C32_49  and  C34_51
REMARK   18  A    between atoms: O9_52  and  C35_53
REMARK   19  A    between atoms: C35_53  and  C36_55
REMARK   20  A    between atoms: O11_56  and  C37_57
REMARK   21  A    between atoms: C37_57  and  C38_59
REMARK                            x       y       z     vdW  Elec       q    Type
REMARK                         _______ _______ _______ _____ _____    ______ ____
ROOT
ATOM      5  C   UNL     1      47.280  16.714  20.673  0.00  0.00    +0.174 C 
ATOM      6  C   UNL     1      47.497  18.045  21.368  0.00  0.00    +0.193 C 
ATOM     11  C   UNL     1      48.973  18.293  21.563  0.00  0.00    +0.028 C 
ATOM     12  C   UNL     1      49.707  16.985  21.700  0.00  0.00    -0.050 C 
ATOM     13  C   UNL     1      51.095  17.212  22.233  0.00  0.00    +0.010 C 
ATOM     14  C   UNL     1      51.711  18.313  21.911  0.00  0.00    -0.064 C 
ATOM     15  C   UNL     1      51.176  19.395  21.043  0.00  0.00    +0.222 C 
ATOM     20  C   UNL     1      48.936  15.866  22.415  0.00  0.00    +0.085 C 
ATOM     21  C   UNL     1      49.714  16.042  20.441  0.00  0.00    +0.078 C 
ATOM     22  C   UNL     1      50.848  15.090  20.863  0.00  0.00    +0.199 C 
ATOM     27  C   UNL     1      51.112  13.714  20.292  0.00  0.00    +0.187 C 
ATOM     32  C   UNL     1      49.917  13.130  19.514  0.00  0.00    -0.024 C 
ATOM     33  C   UNL     1      49.709  13.776  18.145  0.00  0.00    +0.063 C 
ATOM     34  C   UNL     1      50.207  11.602  19.392  0.00  0.00    +0.011 C 
ATOM     41  C   UNL     1      49.676  11.113  20.763  0.00  0.00    +0.060 C 
ATOM     42  C   UNL     1      48.569  12.090  21.091  0.00  0.00    -0.014 C 
ATOM     43  C   UNL     1      48.708  13.195  20.394  0.00  0.00    -0.117 C 
ATOM     44  C   UNL     1      47.792  14.374  20.457  0.00  0.00    +0.097 C 
ATOM     45  C   UNL     1      49.677  19.326  20.732  0.00  0.00    -0.026 C 
ATOM     46  C   UNL     1      49.099  20.723  21.059  0.00  0.00    +0.034 C 
ATOM     47  C   UNL     1      49.494  19.079  19.230  0.00  0.00    +0.059 C 
ATOM     48  C   UNL     1      48.314  15.629  21.099  0.00  0.00    -0.038 C 
ENDROOT
BRANCH  34  35
ATOM     35  C   UNL     1      49.410  10.986  18.240  0.00  0.00    -0.007 C 
ATOM     36  C   UNL     1      50.335  10.615  17.047  0.00  0.00    +0.051 C 
ATOM     37  C   UNL     1      49.405  10.779  15.857  0.00  0.00    +0.479 C 
ATOM     38  O   UNL     1      48.376  11.567  16.201  0.00  0.00    -0.343 OA
ATOM     39  O   UNL     1      49.567  10.277  14.770  0.00  0.00    -0.456 OA
ATOM     40  C   UNL     1      48.503  12.041  17.551  0.00  0.00    +0.251 C 
ENDBRANCH  34  35
BRANCH   5   4
ATOM      4  O   UNL     1      47.341  16.892  19.261  0.00  0.00    -0.322 OA
BRANCH   4   3
ATOM      3  C   UNL     1      46.243  16.575  18.558  0.00  0.00    +0.466 C 
ATOM     49  O   UNL     1      45.200  16.360  19.129  0.00  0.00    -0.502 OA
BRANCH   3   2
ATOM      1  C   UNL     1      47.409  17.414  16.537  0.00  0.00    +0.057 C 
ATOM      2  C   UNL     1      46.310  16.485  17.055  0.00  0.00    +0.027 C 
ATOM     50  C   UNL     1      46.624  15.045  16.644  0.00  0.00    +0.059 C 
ENDBRANCH   3   2
ENDBRANCH   4   3
ENDBRANCH   5   4
BRANCH   6   7
ATOM      7  O   UNL     1      46.865  19.077  20.616  0.00  0.00    -0.333 OA
BRANCH   7   8
ATOM      8  C   UNL     1      45.636  19.450  21.008  0.00  0.00    +0.465 C 
ATOM      9  C   UNL     1      45.310  19.548  22.476  0.00  0.00    +0.153 C 
ATOM     10  O   UNL     1      44.791  19.706  20.183  0.00  0.00    -0.500 OA
ENDBRANCH   7   8
ENDBRANCH   6   7
BRANCH  15  16
ATOM     16  O   UNL     1      51.897  19.389  19.804  0.00  0.00    -0.328 OA
BRANCH  16  17
ATOM     17  C   UNL     1      52.323  20.575  19.340  0.00  0.00    +0.454 C 
ATOM     18  C   UNL     1      52.650  21.686  20.304  0.00  0.00    +0.151 C 
ATOM     19  O   UNL     1      52.443  20.750  18.151  0.00  0.00    -0.514 OA
ENDBRANCH  16  17
ENDBRANCH  15  16
BRANCH  22  23
ATOM     23  O   UNL     1      52.075  15.792  20.528  0.00  0.00    -0.331 OA
BRANCH  23  24
ATOM     24  C   UNL     1      53.150  15.543  21.293  0.00  0.00    +0.455 C 
ATOM     25  C   UNL     1      54.520  15.965  20.830  0.00  0.00    +0.142 C 
ATOM     26  O   UNL     1      53.018  14.979  22.353  0.00  0.00    -0.514 OA
ENDBRANCH  23  24
ENDBRANCH  22  23
BRANCH  27  28
ATOM     28  O   UNL     1      52.248  13.793  19.418  0.00  0.00    -0.332 OA
BRANCH  28  29
ATOM     29  C   UNL     1      53.026  12.702  19.331  0.00  0.00    +0.447 C 
ATOM     30  C   UNL     1      53.540  12.041  20.585  0.00  0.00    +0.152 C 
ATOM     31  O   UNL     1      53.315  12.250  18.249  0.00  0.00    -0.495 OA
ENDBRANCH  28  29
ENDBRANCH  27  28
TORSDOF 12
ENDMDL
MODEL 8
REMARK VINA RESULT:      -2.9      2.027      3.990
REMARK  Name = ZINC95486232
REMARK  21 active torsions:
REMARK  status: ('A' for Active; 'I' for Inactive)
REMARK    1  A    between atoms: C1_1  and  C2_2
REMARK    2  A    between atoms: C2_2  and  C3_3
REMARK    3  A    between atoms: C2_2  and  C4_4
REMARK    4  A    between atoms: C4_4  and  O2_6
REMARK    5  A    between atoms: O2_6  and  C5_7
REMARK    6  A    between atoms: C6_9  and  O11_56
REMARK    7  A    between atoms: C12_18  and  O7_41
REMARK    8  A    between atoms: C13_20  and  O5_37
REMARK    9  A    between atoms: C14_22  and  C24_36
REMARK   10  A    between atoms: C15_23  and  C20_29
REMARK   11  A    between atoms: O5_37  and  C25_38
REMARK   12  A    between atoms: C25_38  and  C26_40
REMARK   13  A    between atoms: O7_41  and  C27_42
REMARK   14  A    between atoms: C27_42  and  C28_44
REMARK   15  A    between atoms: C31_47  and  O9_52
REMARK   16  A    between atoms: C32_49  and  C33_50
REMARK   17  A    between atoms: C32_49  and  C34_51
REMARK   18  A    between atoms: O9_52  and  C35_53
REMARK   19  A    between atoms: C35_53  and  C36_55
REMARK   20  A    between atoms: O11_56  and  C37_57
REMARK   21  A    between atoms: C37_57  and  C38_59
REMARK                            x       y       z     vdW  Elec       q    Type
REMARK                         _______ _______ _______ _____ _____    ______ ____
ROOT
ATOM      5  C   UNL     1      49.708  18.419  20.379  0.00  0.00    +0.174 C 
ATOM      6  C   UNL     1      51.134  17.939  20.185  0.00  0.00    +0.193 C 
ATOM     11  C   UNL     1      51.136  16.523  19.663  0.00  0.00    +0.028 C 
ATOM     12  C   UNL     1      49.912  15.789  20.140  0.00  0.00    -0.050 C 
ATOM     13  C   UNL     1      50.066  14.307  19.926  0.00  0.00    +0.010 C 
ATOM     14  C   UNL     1      50.753  13.898  18.899  0.00  0.00    -0.064 C 
ATOM     15  C   UNL     1      51.412  14.761  17.884  0.00  0.00    +0.222 C 
ATOM     20  C   UNL     1      49.417  16.171  21.543  0.00  0.00    +0.085 C 
ATOM     21  C   UNL     1      48.523  16.311  19.615  0.00  0.00    +0.078 C 
ATOM     22  C   UNL     1      47.654  15.097  19.992  0.00  0.00    +0.199 C 
ATOM     27  C   UNL     1      46.147  15.090  20.124  0.00  0.00    +0.187 C 
ATOM     32  C   UNL     1      45.533  16.497  20.250  0.00  0.00    -0.024 C 
ATOM     33  C   UNL     1      45.522  17.274  18.934  0.00  0.00    +0.063 C 
ATOM     34  C   UNL     1      44.091  16.273  20.800  0.00  0.00    +0.011 C 
ATOM     41  C   UNL     1      44.390  16.165  22.315  0.00  0.00    +0.060 C 
ATOM     42  C   UNL     1      45.612  17.034  22.505  0.00  0.00    -0.014 C 
ATOM     43  C   UNL     1      46.232  17.216  21.362  0.00  0.00    -0.117 C 
ATOM     44  C   UNL     1      47.471  18.028  21.172  0.00  0.00    +0.097 C 
ATOM     45  C   UNL     1      51.518  16.249  18.237  0.00  0.00    -0.026 C 
ATOM     46  C   UNL     1      52.997  16.645  18.020  0.00  0.00    +0.034 C 
ATOM     47  C   UNL     1      50.665  17.053  17.249  0.00  0.00    +0.059 C 
ATOM     48  C   UNL     1      48.746  17.293  20.861  0.00  0.00    -0.038 C 
ENDROOT
BRANCH  34  35
ATOM     35  C   UNL     1      43.199  17.480  20.498  0.00  0.00    -0.007 C 
ATOM     36  C   UNL     1      44.031  18.682  19.971  0.00  0.00    +0.051 C 
ATOM     37  C   UNL     1      43.221  19.872  20.457  0.00  0.00    +0.479 C 
ATOM     38  O   UNL     1      42.430  19.488  21.470  0.00  0.00    -0.343 OA
ATOM     39  O   UNL     1      43.279  20.989  20.002  0.00  0.00    -0.456 OA
ATOM     40  C   UNL     1      42.633  18.105  21.802  0.00  0.00    +0.251 C 
ENDBRANCH  34  35
BRANCH   5   4
ATOM      4  O   UNL     1      49.215  18.968  19.159  0.00  0.00    -0.322 OA
BRANCH   4   3
ATOM      3  C   UNL     1      48.779  20.237  19.194  0.00  0.00    +0.466 C 
ATOM     49  O   UNL     1      49.459  21.124  18.735  0.00  0.00    -0.502 OA
BRANCH   3   2
ATOM      1  C   UNL     1      47.616  21.609  20.902  0.00  0.00    +0.057 C 
ATOM      2  C   UNL     1      47.439  20.555  19.807  0.00  0.00    +0.027 C 
ATOM     50  C   UNL     1      46.500  21.096  18.726  0.00  0.00    +0.059 C 
ENDBRANCH   3   2
ENDBRANCH   4   3
ENDBRANCH   5   4
BRANCH   6   7
ATOM      7  O   UNL     1      51.822  18.840  19.323  0.00  0.00    -0.333 OA
BRANCH   7   8
ATOM      8  C   UNL     1      52.417  19.897  19.898  0.00  0.00    +0.465 C 
ATOM      9  C   UNL     1      52.876  21.055  19.050  0.00  0.00    +0.153 C 
ATOM     10  O   UNL     1      52.586  19.920  21.094  0.00  0.00    -0.500 OA
ENDBRANCH   7   8
ENDBRANCH   6   7
BRANCH  15  16
ATOM     16  O   UNL     1      50.703  14.638  16.645  0.00  0.00    -0.328 OA
BRANCH  16  17
ATOM     17  C   UNL     1      51.216  13.801  15.729  0.00  0.00    +0.454 C 
ATOM     18  C   UNL     1      51.003  12.316  15.864  0.00  0.00    +0.151 C 
ATOM     19  O   UNL     1      51.848  14.239  14.798  0.00  0.00    -0.514 OA
ENDBRANCH  16  17
ENDBRANCH  15  16
BRANCH  22  23
ATOM     23  O   UNL     1      47.864  14.136  18.922  0.00  0.00    -0.331 OA
BRANCH  23  24
ATOM     24  C   UNL     1      47.729  14.584  17.664  0.00  0.00    +0.455 C 
ATOM     25  C   UNL     1      47.570  13.607  16.528  0.00  0.00    +0.142 C 
ATOM     26  O   UNL     1      47.736  15.771  17.442  0.00  0.00    -0.514 OA
ENDBRANCH  23  24
ENDBRANCH  22  23
BRANCH  27  28
ATOM     28  O   UNL     1      45.591  14.436  18.973  0.00  0.00    -0.332 OA
BRANCH  28  29
ATOM     29  C   UNL     1      44.985  13.256  19.177  0.00  0.00    +0.447 C 
ATOM     30  C   UNL     1      44.547  12.420  18.002  0.00  0.00    +0.152 C 
ATOM     31  O   UNL     1      44.789  12.863  20.303  0.00  0.00    -0.495 OA
ENDBRANCH  28  29
ENDBRANCH  27  28
TORSDOF 12
ENDMDL
MODEL 9
REMARK VINA RESULT:      -2.9      2.199      8.022
REMARK  Name = ZINC95486232
REMARK  21 active torsions:
REMARK  status: ('A' for Active; 'I' for Inactive)
REMARK    1  A    between atoms: C1_1  and  C2_2
REMARK    2  A    between atoms: C2_2  and  C3_3
REMARK    3  A    between atoms: C2_2  and  C4_4
REMARK    4  A    between atoms: C4_4  and  O2_6
REMARK    5  A    between atoms: O2_6  and  C5_7
REMARK    6  A    between atoms: C6_9  and  O11_56
REMARK    7  A    between atoms: C12_18  and  O7_41
REMARK    8  A    between atoms: C13_20  and  O5_37
REMARK    9  A    between atoms: C14_22  and  C24_36
REMARK   10  A    between atoms: C15_23  and  C20_29
REMARK   11  A    between atoms: O5_37  and  C25_38
REMARK   12  A    between atoms: C25_38  and  C26_40
REMARK   13  A    between atoms: O7_41  and  C27_42
REMARK   14  A    between atoms: C27_42  and  C28_44
REMARK   15  A    between atoms: C31_47  and  O9_52
REMARK   16  A    between atoms: C32_49  and  C33_50
REMARK   17  A    between atoms: C32_49  and  C34_51
REMARK   18  A    between atoms: O9_52  and  C35_53
REMARK   19  A    between atoms: C35_53  and  C36_55
REMARK   20  A    between atoms: O11_56  and  C37_57
REMARK   21  A    between atoms: C37_57  and  C38_59
REMARK                            x       y       z     vdW  Elec       q    Type
REMARK                         _______ _______ _______ _____ _____    ______ ____
ROOT
ATOM      5  C   UNL     1      47.970  16.660  20.768  0.00  0.00    +0.174 C 
ATOM      6  C   UNL     1      48.737  17.891  21.212  0.00  0.00    +0.193 C 
ATOM     11  C   UNL     1      50.111  17.898  20.586  0.00  0.00    +0.028 C 
ATOM     12  C   UNL     1      50.578  16.489  20.338  0.00  0.00    -0.050 C 
ATOM     13  C   UNL     1      52.054  16.465  20.045  0.00  0.00    +0.010 C 
ATOM     14  C   UNL     1      52.579  17.480  19.422  0.00  0.00    -0.064 C 
ATOM     15  C   UNL     1      51.854  18.689  18.949  0.00  0.00    +0.222 C 
ATOM     20  C   UNL     1      50.129  15.451  21.377  0.00  0.00    +0.085 C 
ATOM     21  C   UNL     1      49.763  15.647  19.288  0.00  0.00    +0.078 C 
ATOM     22  C   UNL     1      50.773  14.507  19.062  0.00  0.00    +0.199 C 
ATOM     27  C   UNL     1      50.464  13.151  18.466  0.00  0.00    +0.187 C 
ATOM     32  C   UNL     1      48.961  12.811  18.457  0.00  0.00    -0.024 C 
ATOM     33  C   UNL     1      48.172  13.576  17.396  0.00  0.00    +0.063 C 
ATOM     34  C   UNL     1      48.885  11.269  18.231  0.00  0.00    +0.011 C 
ATOM     41  C   UNL     1      49.086  10.770  19.683  0.00  0.00    +0.060 C 
ATOM     42  C   UNL     1      48.500  11.877  20.530  0.00  0.00    -0.014 C 
ATOM     43  C   UNL     1      48.430  12.995  19.844  0.00  0.00    -0.117 C 
ATOM     44  C   UNL     1      47.895  14.291  20.360  0.00  0.00    +0.097 C 
ATOM     45  C   UNL     1      50.430  18.869  19.487  0.00  0.00    -0.026 C 
ATOM     46  C   UNL     1      50.351  20.311  20.042  0.00  0.00    +0.034 C 
ATOM     47  C   UNL     1      49.443  18.761  18.318  0.00  0.00    +0.059 C 
ATOM     48  C   UNL     1      48.877  15.404  20.600  0.00  0.00    -0.038 C 
ENDROOT
BRANCH  34  35
ATOM     35  C   UNL     1      47.511  10.863  17.693  0.00  0.00    -0.007 C 
ATOM     36  C   UNL     1      47.565  10.569  16.167  0.00  0.00    +0.051 C 
ATOM     37  C   UNL     1      46.165  10.949  15.718  0.00  0.00    +0.479 C 
ATOM     38  O   UNL     1      45.613  11.769  16.625  0.00  0.00    -0.343 OA
ATOM     39  O   UNL     1      45.631  10.572  14.702  0.00  0.00    -0.456 OA
ATOM     40  C   UNL     1      46.526  12.063  17.694  0.00  0.00    +0.251 C 
ENDBRANCH  34  35
BRANCH   5   4
ATOM      4  O   UNL     1      47.304  16.927  19.536  0.00  0.00    -0.322 OA
BRANCH   4   3
ATOM      3  C   UNL     1      45.975  17.103  19.588  0.00  0.00    +0.466 C 
ATOM     49  O   UNL     1      45.335  16.621  20.492  0.00  0.00    -0.502 OA
BRANCH   3   2
ATOM      1  C   UNL     1      45.021  19.323  19.026  0.00  0.00    +0.057 C 
ATOM      2  C   UNL     1      45.279  17.904  18.516  0.00  0.00    +0.027 C 
ATOM     50  C   UNL     1      46.165  17.963  17.270  0.00  0.00    +0.059 C 
ENDBRANCH   3   2
ENDBRANCH   4   3
ENDBRANCH   5   4
BRANCH   6   7
ATOM      7  O   UNL     1      47.985  19.057  20.892  0.00  0.00    -0.333 OA
BRANCH   7   8
ATOM      8  C   UNL     1      47.253  19.599  21.878  0.00  0.00    +0.465 C 
ATOM      9  C   UNL     1      47.393  21.064  22.202  0.00  0.00    +0.153 C 
ATOM     10  O   UNL     1      46.481  18.913  22.505  0.00  0.00    -0.500 OA
ENDBRANCH   7   8
ENDBRANCH   6   7
BRANCH  15  16
ATOM     16  O   UNL     1      51.798  18.662  17.518  0.00  0.00    -0.328 OA
BRANCH  16  17
ATOM     17  C   UNL     1      52.248  19.749  16.869  0.00  0.00    +0.454 C 
ATOM     18  C   UNL     1      52.050  19.873  15.381  0.00  0.00    +0.151 C 
ATOM     19  O   UNL     1      52.811  20.626  17.480  0.00  0.00    -0.514 OA
ENDBRANCH  16  17
ENDBRANCH  15  16
BRANCH  22  23
ATOM     23  O   UNL     1      51.734  15.038  18.110  0.00  0.00    -0.331 OA
BRANCH  23  24
ATOM     24  C   UNL     1      51.243  15.587  16.988  0.00  0.00    +0.455 C 
ATOM     25  C   UNL     1      52.124  15.742  15.775  0.00  0.00    +0.142 C 
ATOM     26  O   UNL     1      50.094  15.960  16.951  0.00  0.00    -0.514 OA
ENDBRANCH  23  24
ENDBRANCH  22  23
BRANCH  27  28
ATOM     28  O   UNL     1      50.961  13.119  17.120  0.00  0.00    -0.332 OA
BRANCH  28  29
ATOM     29  C   UNL     1      51.630  12.017  16.744  0.00  0.00    +0.447 C 
ATOM     30  C   UNL     1      52.551  11.327  17.716  0.00  0.00    +0.152 C 
ATOM     31  O   UNL     1      51.494  11.579  15.627  0.00  0.00    -0.495 OA
ENDBRANCH  28  29
ENDBRANCH  27  28
TORSDOF 12
ENDMDL
