MODEL 1
REMARK VINA RESULT:      -6.5      0.000      0.000
REMARK  Name = ZINC95486215
REMARK  5 active torsions:
REMARK  status: ('A' for Active; 'I' for Inactive)
REMARK    1  A    between atoms: C1_1  and  O1_2
REMARK    2  A    between atoms: O1_2  and  C2_3
REMARK    3  A    between atoms: C2_3  and  C3_5
REMARK    4  A    between atoms: C20_26  and  O4_28
REMARK    5  A    between atoms: O4_28  and  C21_29
REMARK                            x       y       z     vdW  Elec       q    Type
REMARK                         _______ _______ _______ _____ _____    ______ ____
ROOT
ATOM      4  C   UNL     1      45.889  20.354  21.098  0.00  0.00    +0.053 C 
ATOM      5  C   UNL     1      46.163  18.867  21.406  0.00  0.00    +0.079 C 
ATOM      6  C   UNL     1      44.840  18.119  21.547  0.00  0.00    -0.063 C 
ATOM      7  C   UNL     1      45.098  16.721  22.109  0.00  0.00    +0.069 C 
ATOM      8  C   UNL     1      46.008  15.973  21.138  0.00  0.00    +0.061 C 
ATOM      9  C   UNL     1      45.386  15.917  19.758  0.00  0.00    +0.247 C 
ATOM     10  N   UNL     1      44.810  17.131  19.265  0.00  0.00    -0.370 N 
ATOM     11  H   UNL     1      44.105  16.833  18.582  0.00  0.00    +0.425 HD
ATOM     12  C   UNL     1      45.758  17.972  18.502  0.00  0.00    +0.256 C 
ATOM     13  C   UNL     1      45.006  19.319  18.348  0.00  0.00    +0.094 C 
ATOM     14  C   UNL     1      44.096  19.394  19.579  0.00  0.00    -0.024 C 
ATOM     15  C   UNL     1      42.757  19.900  19.135  0.00  0.00    -0.143 A 
ATOM     16  C   UNL     1      41.669  19.268  18.581  0.00  0.00    +0.060 A 
ATOM     17  C   UNL     1      40.571  20.061  18.262  0.00  0.00    +0.003 A 
ATOM     18  C   UNL     1      40.571  21.420  18.494  0.00  0.00    +0.057 A 
ATOM     19  C   UNL     1      41.661  22.067  19.060  0.00  0.00    +0.033 A 
ATOM     20  C   UNL     1      42.765  21.287  19.385  0.00  0.00    +0.146 A 
ATOM     21  N   UNL     1      43.988  21.680  19.971  0.00  0.00    -0.534 N 
ATOM     22  C   UNL     1      44.518  22.918  19.940  0.00  0.00    +0.683 C 
ATOM     25  O   UNL     1      45.560  23.148  20.521  0.00  0.00    -0.542 OA
ATOM     26  C   UNL     1      43.920  18.893  22.503  0.00  0.00    +0.077 C 
ATOM     27  C   UNL     1      43.563  20.236  21.863  0.00  0.00    +0.042 C 
ATOM     28  C   UNL     1      44.105  17.999  20.205  0.00  0.00    +0.210 C 
ATOM     29  C   UNL     1      44.468  20.456  20.623  0.00  0.00    +0.229 C 
ENDROOT
BRANCH   4   3
ATOM      3  C   UNL     1      46.937  20.899  20.182  0.00  0.00    +0.480 C 
ATOM     30  O   UNL     1      46.752  20.907  18.988  0.00  0.00    -0.484 OA
BRANCH   3   2
ATOM      1  C   UNL     1      49.299  20.796  20.205  0.00  0.00    +0.269 C 
ATOM      2  O   UNL     1      48.085  21.379  20.685  0.00  0.00    -0.349 OA
ENDBRANCH   3   2
ENDBRANCH   4   3
BRANCH  22  23
ATOM     23  O   UNL     1      43.892  23.901  19.266  0.00  0.00    -0.354 OA
ATOM     24  C   UNL     1      44.716  24.904  18.667  0.00  0.00    +0.293 C 
ENDBRANCH  22  23
TORSDOF 3
ENDMDL
MODEL 2
REMARK VINA RESULT:      -5.8      2.358      5.103
REMARK  Name = ZINC95486215
REMARK  5 active torsions:
REMARK  status: ('A' for Active; 'I' for Inactive)
REMARK    1  A    between atoms: C1_1  and  O1_2
REMARK    2  A    between atoms: O1_2  and  C2_3
REMARK    3  A    between atoms: C2_3  and  C3_5
REMARK    4  A    between atoms: C20_26  and  O4_28
REMARK    5  A    between atoms: O4_28  and  C21_29
REMARK                            x       y       z     vdW  Elec       q    Type
REMARK                         _______ _______ _______ _____ _____    ______ ____
ROOT
ATOM      4  C   UNL     1      45.516  17.688  19.935  0.00  0.00    +0.053 C 
ATOM      5  C   UNL     1      43.983  17.780  20.081  0.00  0.00    +0.079 C 
ATOM      6  C   UNL     1      43.633  18.642  21.292  0.00  0.00    -0.063 C 
ATOM      7  C   UNL     1      42.139  18.519  21.595  0.00  0.00    +0.069 C 
ATOM      8  C   UNL     1      41.360  19.008  20.376  0.00  0.00    +0.061 C 
ATOM      9  C   UNL     1      41.747  20.431  20.029  0.00  0.00    +0.247 C 
ATOM     10  N   UNL     1      43.146  20.735  20.038  0.00  0.00    -0.370 N 
ATOM     11  H   UNL     1      43.197  21.744  20.210  0.00  0.00    +0.425 HD
ATOM     12  C   UNL     1      43.808  20.528  18.732  0.00  0.00    +0.256 C 
ATOM     13  C   UNL     1      45.318  20.625  19.072  0.00  0.00    +0.094 C 
ATOM     14  C   UNL     1      45.416  20.154  20.527  0.00  0.00    -0.024 C 
ATOM     15  C   UNL     1      46.360  21.070  21.247  0.00  0.00    -0.143 A 
ATOM     16  C   UNL     1      46.183  22.299  21.836  0.00  0.00    +0.060 A 
ATOM     17  C   UNL     1      47.302  22.893  22.411  0.00  0.00    +0.003 A 
ATOM     18  C   UNL     1      48.535  22.275  22.393  0.00  0.00    +0.057 A 
ATOM     19  C   UNL     1      48.723  21.030  21.809  0.00  0.00    +0.033 A 
ATOM     20  C   UNL     1      47.612  20.424  21.233  0.00  0.00    +0.146 A 
ATOM     21  N   UNL     1      47.520  19.173  20.584  0.00  0.00    -0.534 N 
ATOM     22  C   UNL     1      48.537  18.505  20.007  0.00  0.00    +0.683 C 
ATOM     25  O   UNL     1      48.343  17.409  19.517  0.00  0.00    -0.542 OA
ATOM     26  C   UNL     1      44.442  18.163  22.505  0.00  0.00    +0.077 C 
ATOM     27  C   UNL     1      45.927  18.417  22.239  0.00  0.00    +0.042 C 
ATOM     28  C   UNL     1      43.985  20.118  21.064  0.00  0.00    +0.210 C 
ATOM     29  C   UNL     1      46.109  18.802  20.748  0.00  0.00    +0.229 C 
ENDROOT
BRANCH   4   3
ATOM      3  C   UNL     1      45.902  17.639  18.492  0.00  0.00    +0.480 C 
ATOM     30  O   UNL     1      46.080  18.665  17.879  0.00  0.00    -0.484 OA
BRANCH   3   2
ATOM      1  C   UNL     1      46.603  16.474  16.558  0.00  0.00    +0.269 C 
ATOM      2  O   UNL     1      46.048  16.456  17.875  0.00  0.00    -0.349 OA
ENDBRANCH   3   2
ENDBRANCH   4   3
BRANCH  22  23
ATOM     23  O   UNL     1      49.767  19.050  19.972  0.00  0.00    -0.354 OA
ATOM     24  C   UNL     1      50.253  19.475  18.697  0.00  0.00    +0.293 C 
ENDBRANCH  22  23
TORSDOF 3
ENDMDL
MODEL 3
REMARK VINA RESULT:      -5.8      2.230      4.760
REMARK  Name = ZINC95486215
REMARK  5 active torsions:
REMARK  status: ('A' for Active; 'I' for Inactive)
REMARK    1  A    between atoms: C1_1  and  O1_2
REMARK    2  A    between atoms: O1_2  and  C2_3
REMARK    3  A    between atoms: C2_3  and  C3_5
REMARK    4  A    between atoms: C20_26  and  O4_28
REMARK    5  A    between atoms: O4_28  and  C21_29
REMARK                            x       y       z     vdW  Elec       q    Type
REMARK                         _______ _______ _______ _____ _____    ______ ____
ROOT
ATOM      4  C   UNL     1      45.953  20.509  20.579  0.00  0.00    +0.053 C 
ATOM      5  C   UNL     1      44.517  20.264  21.086  0.00  0.00    +0.079 C 
ATOM      6  C   UNL     1      43.786  19.329  20.126  0.00  0.00    -0.063 C 
ATOM      7  C   UNL     1      42.297  19.296  20.475  0.00  0.00    +0.069 C 
ATOM      8  C   UNL     1      42.151  18.779  21.904  0.00  0.00    +0.061 C 
ATOM      9  C   UNL     1      42.791  17.414  22.048  0.00  0.00    +0.247 C 
ATOM     10  N   UNL     1      44.083  17.247  21.454  0.00  0.00    -0.370 N 
ATOM     11  H   UNL     1      44.161  16.241  21.269  0.00  0.00    +0.425 HD
ATOM     12  C   UNL     1      45.203  17.564  22.366  0.00  0.00    +0.256 C 
ATOM     13  C   UNL     1      46.435  17.601  21.426  0.00  0.00    +0.094 C 
ATOM     14  C   UNL     1      45.871  18.025  20.066  0.00  0.00    -0.024 C 
ATOM     15  C   UNL     1      46.518  17.179  19.012  0.00  0.00    -0.143 A 
ATOM     16  C   UNL     1      46.240  15.917  18.542  0.00  0.00    +0.060 A 
ATOM     17  C   UNL     1      47.074  15.413  17.548  0.00  0.00    +0.003 A 
ATOM     18  C   UNL     1      48.131  16.147  17.054  0.00  0.00    +0.057 A 
ATOM     19  C   UNL     1      48.416  17.426  17.515  0.00  0.00    +0.033 A 
ATOM     20  C   UNL     1      47.589  17.942  18.507  0.00  0.00    +0.146 A 
ATOM     21  N   UNL     1      47.647  19.202  19.143  0.00  0.00    -0.534 N 
ATOM     22  C   UNL     1      48.737  19.985  19.248  0.00  0.00    +0.683 C 
ATOM     25  O   UNL     1      48.653  21.074  19.781  0.00  0.00    -0.542 OA
ATOM     26  C   UNL     1      43.963  19.839  18.689  0.00  0.00    +0.077 C 
ATOM     27  C   UNL     1      45.442  19.739  18.309  0.00  0.00    +0.042 C 
ATOM     28  C   UNL     1      44.351  17.903  20.176  0.00  0.00    +0.210 C 
ATOM     29  C   UNL     1      46.266  19.428  19.585  0.00  0.00    +0.229 C 
ENDROOT
BRANCH   4   3
ATOM      3  C   UNL     1      46.897  20.648  21.730  0.00  0.00    +0.480 C 
ATOM     30  O   UNL     1      47.498  19.683  22.139  0.00  0.00    -0.484 OA
BRANCH   3   2
ATOM      1  C   UNL     1      46.626  22.992  21.589  0.00  0.00    +0.269 C 
ATOM      2  O   UNL     1      47.075  21.844  22.312  0.00  0.00    -0.349 OA
ENDBRANCH   3   2
ENDBRANCH   4   3
BRANCH  22  23
ATOM     23  O   UNL     1      49.919  19.563  18.762  0.00  0.00    -0.354 OA
ATOM     24  C   UNL     1      50.788  20.556  18.213  0.00  0.00    +0.293 C 
ENDBRANCH  22  23
TORSDOF 3
ENDMDL
MODEL 4
REMARK VINA RESULT:      -5.8      2.486      5.506
REMARK  Name = ZINC95486215
REMARK  5 active torsions:
REMARK  status: ('A' for Active; 'I' for Inactive)
REMARK    1  A    between atoms: C1_1  and  O1_2
REMARK    2  A    between atoms: O1_2  and  C2_3
REMARK    3  A    between atoms: C2_3  and  C3_5
REMARK    4  A    between atoms: C20_26  and  O4_28
REMARK    5  A    between atoms: O4_28  and  C21_29
REMARK                            x       y       z     vdW  Elec       q    Type
REMARK                         _______ _______ _______ _____ _____    ______ ____
ROOT
ATOM      4  C   UNL     1      47.291  20.197  18.888  0.00  0.00    +0.053 C 
ATOM      5  C   UNL     1      46.450  21.364  19.445  0.00  0.00    +0.079 C 
ATOM      6  C   UNL     1      45.043  20.871  19.778  0.00  0.00    -0.063 C 
ATOM      7  C   UNL     1      44.138  22.067  20.075  0.00  0.00    +0.069 C 
ATOM      8  C   UNL     1      44.713  22.820  21.272  0.00  0.00    +0.061 C 
ATOM      9  C   UNL     1      44.841  21.901  22.470  0.00  0.00    +0.247 C 
ATOM     10  N   UNL     1      45.392  20.603  22.226  0.00  0.00    -0.370 N 
ATOM     11  H   UNL     1      45.024  20.012  22.978  0.00  0.00    +0.425 HD
ATOM     12  C   UNL     1      46.863  20.544  22.371  0.00  0.00    +0.256 C 
ATOM     13  C   UNL     1      47.231  19.161  21.775  0.00  0.00    +0.094 C 
ATOM     14  C   UNL     1      46.141  18.888  20.733  0.00  0.00    -0.024 C 
ATOM     15  C   UNL     1      45.728  17.452  20.861  0.00  0.00    -0.143 A 
ATOM     16  C   UNL     1      44.844  16.818  21.702  0.00  0.00    +0.060 A 
ATOM     17  C   UNL     1      44.713  15.440  21.560  0.00  0.00    +0.003 A 
ATOM     18  C   UNL     1      45.436  14.741  20.616  0.00  0.00    +0.057 A 
ATOM     19  C   UNL     1      46.324  15.372  19.756  0.00  0.00    +0.033 A 
ATOM     20  C   UNL     1      46.463  16.750  19.886  0.00  0.00    +0.146 A 
ATOM     21  N   UNL     1      47.281  17.633  19.147  0.00  0.00    -0.534 N 
ATOM     22  C   UNL     1      48.398  17.299  18.474  0.00  0.00    +0.683 C 
ATOM     25  O   UNL     1      48.997  18.141  17.834  0.00  0.00    -0.542 OA
ATOM     26  C   UNL     1      44.484  20.091  18.580  0.00  0.00    +0.077 C 
ATOM     27  C   UNL     1      45.323  18.827  18.380  0.00  0.00    +0.042 C 
ATOM     28  C   UNL     1      45.041  19.921  20.982  0.00  0.00    +0.210 C 
ATOM     29  C   UNL     1      46.592  18.923  19.266  0.00  0.00    +0.229 C 
ENDROOT
BRANCH   4   3
ATOM      3  C   UNL     1      48.716  20.327  19.321  0.00  0.00    +0.480 C 
ATOM     30  O   UNL     1      49.091  19.791  20.337  0.00  0.00    -0.484 OA
BRANCH   3   2
ATOM      1  C   UNL     1      50.965  20.936  18.918  0.00  0.00    +0.269 C 
ATOM      2  O   UNL     1      49.580  21.040  18.581  0.00  0.00    -0.349 OA
ENDBRANCH   3   2
ENDBRANCH   4   3
BRANCH  22  23
ATOM     23  O   UNL     1      48.852  16.032  18.509  0.00  0.00    -0.354 OA
ATOM     24  C   UNL     1      49.143  15.411  17.255  0.00  0.00    +0.293 C 
ENDBRANCH  22  23
TORSDOF 3
ENDMDL
MODEL 5
REMARK VINA RESULT:      -5.8      5.735      7.451
REMARK  Name = ZINC95486215
REMARK  5 active torsions:
REMARK  status: ('A' for Active; 'I' for Inactive)
REMARK    1  A    between atoms: C1_1  and  O1_2
REMARK    2  A    between atoms: O1_2  and  C2_3
REMARK    3  A    between atoms: C2_3  and  C3_5
REMARK    4  A    between atoms: C20_26  and  O4_28
REMARK    5  A    between atoms: O4_28  and  C21_29
REMARK                            x       y       z     vdW  Elec       q    Type
REMARK                         _______ _______ _______ _____ _____    ______ ____
ROOT
ATOM      4  C   UNL     1      49.661  16.991  20.177  0.00  0.00    +0.053 C 
ATOM      5  C   UNL     1      49.417  15.610  19.534  0.00  0.00    +0.079 C 
ATOM      6  C   UNL     1      49.137  15.779  18.043  0.00  0.00    -0.063 C 
ATOM      7  C   UNL     1      48.637  14.456  17.462  0.00  0.00    +0.069 C 
ATOM      8  C   UNL     1      49.723  13.401  17.663  0.00  0.00    +0.061 C 
ATOM      9  C   UNL     1      51.022  13.842  17.019  0.00  0.00    +0.247 C 
ATOM     10  N   UNL     1      51.420  15.199  17.243  0.00  0.00    -0.370 N 
ATOM     11  H   UNL     1      52.021  15.434  16.447  0.00  0.00    +0.425 HD
ATOM     12  C   UNL     1      52.272  15.379  18.439  0.00  0.00    +0.256 C 
ATOM     13  C   UNL     1      52.309  16.917  18.629  0.00  0.00    +0.094 C 
ATOM     14  C   UNL     1      50.979  17.409  18.048  0.00  0.00    -0.024 C 
ATOM     15  C   UNL     1      51.254  18.644  17.244  0.00  0.00    -0.143 A 
ATOM     16  C   UNL     1      51.689  18.827  15.953  0.00  0.00    +0.060 A 
ATOM     17  C   UNL     1      51.862  20.139  15.523  0.00  0.00    +0.003 A 
ATOM     18  C   UNL     1      51.605  21.209  16.352  0.00  0.00    +0.057 A 
ATOM     19  C   UNL     1      51.157  21.037  17.655  0.00  0.00    +0.033 A 
ATOM     20  C   UNL     1      50.978  19.731  18.098  0.00  0.00    +0.146 A 
ATOM     21  N   UNL     1      50.532  19.274  19.357  0.00  0.00    -0.534 N 
ATOM     22  C   UNL     1      50.600  19.958  20.516  0.00  0.00    +0.683 C 
ATOM     25  O   UNL     1      50.140  19.477  21.533  0.00  0.00    -0.542 OA
ATOM     26  C   UNL     1      48.066  16.861  17.848  0.00  0.00    +0.077 C 
ATOM     27  C   UNL     1      48.632  18.204  18.311  0.00  0.00    +0.042 C 
ATOM     28  C   UNL     1      50.386  16.231  17.275  0.00  0.00    +0.210 C 
ATOM     29  C   UNL     1      49.965  17.953  19.064  0.00  0.00    +0.229 C 
ENDROOT
BRANCH   4   3
ATOM      3  C   UNL     1      50.682  16.888  21.264  0.00  0.00    +0.480 C 
ATOM     30  O   UNL     1      50.355  16.523  22.368  0.00  0.00    -0.484 OA
BRANCH   3   2
ATOM      1  C   UNL     1      52.828  17.352  22.143  0.00  0.00    +0.269 C 
ATOM      2  O   UNL     1      51.963  17.204  21.014  0.00  0.00    -0.349 OA
ENDBRANCH   3   2
ENDBRANCH   4   3
BRANCH  22  23
ATOM     23  O   UNL     1      51.176  21.174  20.547  0.00  0.00    -0.354 OA
ATOM     24  C   UNL     1      52.433  21.279  21.218  0.00  0.00    +0.293 C 
ENDBRANCH  22  23
TORSDOF 3
ENDMDL
MODEL 6
REMARK VINA RESULT:      -5.7      5.345      8.106
REMARK  Name = ZINC95486215
REMARK  5 active torsions:
REMARK  status: ('A' for Active; 'I' for Inactive)
REMARK    1  A    between atoms: C1_1  and  O1_2
REMARK    2  A    between atoms: O1_2  and  C2_3
REMARK    3  A    between atoms: C2_3  and  C3_5
REMARK    4  A    between atoms: C20_26  and  O4_28
REMARK    5  A    between atoms: O4_28  and  C21_29
REMARK                            x       y       z     vdW  Elec       q    Type
REMARK                         _______ _______ _______ _____ _____    ______ ____
ROOT
ATOM      4  C   UNL     1      52.214  17.326  18.147  0.00  0.00    +0.053 C 
ATOM      5  C   UNL     1      52.698  18.685  18.692  0.00  0.00    +0.079 C 
ATOM      6  C   UNL     1      51.719  19.783  18.280  0.00  0.00    -0.063 C 
ATOM      7  C   UNL     1      52.326  21.152  18.586  0.00  0.00    +0.069 C 
ATOM      8  C   UNL     1      52.588  21.238  20.088  0.00  0.00    +0.061 C 
ATOM      9  C   UNL     1      51.311  21.003  20.868  0.00  0.00    +0.247 C 
ATOM     10  N   UNL     1      50.490  19.912  20.439  0.00  0.00    -0.370 N 
ATOM     11  H   UNL     1      49.544  20.152  20.753  0.00  0.00    +0.425 HD
ATOM     12  C   UNL     1      50.807  18.630  21.106  0.00  0.00    +0.256 C 
ATOM     13  C   UNL     1      50.020  17.585  20.275  0.00  0.00    +0.094 C 
ATOM     14  C   UNL     1      49.939  18.190  18.870  0.00  0.00    -0.024 C 
ATOM     15  C   UNL     1      48.551  17.969  18.349  0.00  0.00    -0.143 A 
ATOM     16  C   UNL     1      47.377  18.661  18.528  0.00  0.00    +0.060 A 
ATOM     17  C   UNL     1      46.242  18.156  17.901  0.00  0.00    +0.003 A 
ATOM     18  C   UNL     1      46.292  17.014  17.131  0.00  0.00    +0.057 A 
ATOM     19  C   UNL     1      47.474  16.312  16.936  0.00  0.00    +0.033 A 
ATOM     20  C   UNL     1      48.616  16.806  17.556  0.00  0.00    +0.146 A 
ATOM     21  N   UNL     1      49.934  16.300  17.521  0.00  0.00    -0.534 N 
ATOM     22  C   UNL     1      50.286  15.027  17.256  0.00  0.00    +0.683 C 
ATOM     25  O   UNL     1      51.460  14.718  17.209  0.00  0.00    -0.542 OA
ATOM     26  C   UNL     1      51.439  19.671  16.775  0.00  0.00    +0.077 C 
ATOM     27  C   UNL     1      50.710  18.353  16.506  0.00  0.00    +0.042 C 
ATOM     28  C   UNL     1      50.374  19.649  19.006  0.00  0.00    +0.210 C 
ATOM     29  C   UNL     1      50.765  17.481  17.787  0.00  0.00    +0.229 C 
ENDROOT
BRANCH   4   3
ATOM      3  C   UNL     1      52.547  16.229  19.107  0.00  0.00    +0.480 C 
ATOM     30  O   UNL     1      51.757  15.918  19.967  0.00  0.00    -0.484 OA
BRANCH   3   2
ATOM      1  C   UNL     1      54.710  15.901  20.004  0.00  0.00    +0.269 C 
ATOM      2  O   UNL     1      53.725  15.592  19.016  0.00  0.00    -0.349 OA
ENDBRANCH   3   2
ENDBRANCH   4   3
BRANCH  22  23
ATOM     23  O   UNL     1      49.336  14.097  17.042  0.00  0.00    -0.354 OA
ATOM     24  C   UNL     1      49.480  13.277  15.880  0.00  0.00    +0.293 C 
ENDBRANCH  22  23
TORSDOF 3
ENDMDL
MODEL 7
REMARK VINA RESULT:      -5.6      2.797      5.667
REMARK  Name = ZINC95486215
REMARK  5 active torsions:
REMARK  status: ('A' for Active; 'I' for Inactive)
REMARK    1  A    between atoms: C1_1  and  O1_2
REMARK    2  A    between atoms: O1_2  and  C2_3
REMARK    3  A    between atoms: C2_3  and  C3_5
REMARK    4  A    between atoms: C20_26  and  O4_28
REMARK    5  A    between atoms: O4_28  and  C21_29
REMARK                            x       y       z     vdW  Elec       q    Type
REMARK                         _______ _______ _______ _____ _____    ______ ____
ROOT
ATOM      4  C   UNL     1      45.532  16.936  19.392  0.00  0.00    +0.053 C 
ATOM      5  C   UNL     1      45.823  15.503  18.900  0.00  0.00    +0.079 C 
ATOM      6  C   UNL     1      46.913  15.539  17.831  0.00  0.00    -0.063 C 
ATOM      7  C   UNL     1      47.016  14.170  17.157  0.00  0.00    +0.069 C 
ATOM      8  C   UNL     1      47.376  13.136  18.221  0.00  0.00    +0.061 C 
ATOM      9  C   UNL     1      48.665  13.515  18.921  0.00  0.00    +0.247 C 
ATOM     10  N   UNL     1      48.803  14.886  19.311  0.00  0.00    -0.370 N 
ATOM     11  H   UNL     1      49.815  15.048  19.356  0.00  0.00    +0.425 HD
ATOM     12  C   UNL     1      48.303  15.171  20.673  0.00  0.00    +0.256 C 
ATOM     13  C   UNL     1      48.282  16.719  20.735  0.00  0.00    +0.094 C 
ATOM     14  C   UNL     1      48.058  17.161  19.285  0.00  0.00    -0.024 C 
ATOM     15  C   UNL     1      48.969  18.318  19.007  0.00  0.00    -0.143 A 
ATOM     16  C   UNL     1      50.293  18.384  18.643  0.00  0.00    +0.060 A 
ATOM     17  C   UNL     1      50.843  19.652  18.484  0.00  0.00    +0.003 A 
ATOM     18  C   UNL     1      50.094  20.793  18.679  0.00  0.00    +0.057 A 
ATOM     19  C   UNL     1      48.754  20.738  19.038  0.00  0.00    +0.033 A 
ATOM     20  C   UNL     1      48.191  19.477  19.199  0.00  0.00    +0.146 A 
ATOM     21  N   UNL     1      46.866  19.135  19.550  0.00  0.00    -0.534 N 
ATOM     22  C   UNL     1      45.997  19.920  20.216  0.00  0.00    +0.683 C 
ATOM     25  O   UNL     1      44.864  19.532  20.422  0.00  0.00    -0.542 OA
ATOM     26  C   UNL     1      46.558  16.601  16.781  0.00  0.00    +0.077 C 
ATOM     27  C   UNL     1      46.592  17.980  17.444  0.00  0.00    +0.042 C 
ATOM     28  C   UNL     1      48.278  15.919  18.420  0.00  0.00    +0.210 C 
ATOM     29  C   UNL     1      46.693  17.794  18.980  0.00  0.00    +0.229 C 
ENDROOT
BRANCH   4   3
ATOM      3  C   UNL     1      45.194  16.929  20.849  0.00  0.00    +0.480 C 
ATOM     30  O   UNL     1      46.074  16.857  21.673  0.00  0.00    -0.484 OA
BRANCH   3   2
ATOM      1  C   UNL     1      43.586  16.420  22.505  0.00  0.00    +0.269 C 
ATOM      2  O   UNL     1      43.913  17.002  21.241  0.00  0.00    -0.349 OA
ENDBRANCH   3   2
ENDBRANCH   4   3
BRANCH  22  23
ATOM     23  O   UNL     1      46.384  21.133  20.653  0.00  0.00    -0.354 OA
ATOM     24  C   UNL     1      45.508  22.230  20.385  0.00  0.00    +0.293 C 
ENDBRANCH  22  23
TORSDOF 3
ENDMDL
MODEL 8
REMARK VINA RESULT:      -5.6      3.285      6.542
REMARK  Name = ZINC95486215
REMARK  5 active torsions:
REMARK  status: ('A' for Active; 'I' for Inactive)
REMARK    1  A    between atoms: C1_1  and  O1_2
REMARK    2  A    between atoms: O1_2  and  C2_3
REMARK    3  A    between atoms: C2_3  and  C3_5
REMARK    4  A    between atoms: C20_26  and  O4_28
REMARK    5  A    between atoms: O4_28  and  C21_29
REMARK                            x       y       z     vdW  Elec       q    Type
REMARK                         _______ _______ _______ _____ _____    ______ ____
ROOT
ATOM      4  C   UNL     1      46.737  16.409  19.790  0.00  0.00    +0.053 C 
ATOM      5  C   UNL     1      45.655  17.077  20.665  0.00  0.00    +0.079 C 
ATOM      6  C   UNL     1      46.255  18.272  21.400  0.00  0.00    -0.063 C 
ATOM      7  C   UNL     1      45.271  18.770  22.459  0.00  0.00    +0.069 C 
ATOM      8  C   UNL     1      43.983  19.194  21.757  0.00  0.00    +0.061 C 
ATOM      9  C   UNL     1      44.268  20.255  20.714  0.00  0.00    +0.247 C 
ATOM     10  N   UNL     1      45.398  20.030  19.863  0.00  0.00    -0.370 N 
ATOM     11  H   UNL     1      45.685  20.963  19.552  0.00  0.00    +0.425 HD
ATOM     12  C   UNL     1      45.072  19.290  18.625  0.00  0.00    +0.256 C 
ATOM     13  C   UNL     1      46.462  18.919  18.048  0.00  0.00    +0.094 C 
ATOM     14  C   UNL     1      47.372  18.811  19.276  0.00  0.00    -0.024 C 
ATOM     15  C   UNL     1      48.676  19.474  18.945  0.00  0.00    -0.143 A 
ATOM     16  C   UNL     1      49.077  20.788  18.975  0.00  0.00    +0.060 A 
ATOM     17  C   UNL     1      50.381  21.062  18.575  0.00  0.00    +0.003 A 
ATOM     18  C   UNL     1      51.236  20.059  18.169  0.00  0.00    +0.057 A 
ATOM     19  C   UNL     1      50.844  18.727  18.143  0.00  0.00    +0.033 A 
ATOM     20  C   UNL     1      49.544  18.440  18.542  0.00  0.00    +0.146 A 
ATOM     21  N   UNL     1      48.895  17.187  18.618  0.00  0.00    -0.534 N 
ATOM     22  C   UNL     1      49.230  16.081  17.926  0.00  0.00    +0.683 C 
ATOM     25  O   UNL     1      48.623  15.044  18.109  0.00  0.00    -0.542 OA
ATOM     26  C   UNL     1      47.564  17.844  22.079  0.00  0.00    +0.077 C 
ATOM     27  C   UNL     1      48.583  17.477  20.998  0.00  0.00    +0.042 C 
ATOM     28  C   UNL     1      46.594  19.422  20.442  0.00  0.00    +0.210 C 
ATOM     29  C   UNL     1      47.855  17.398  19.631  0.00  0.00    +0.229 C 
ENDROOT
BRANCH   4   3
ATOM      3  C   UNL     1      46.134  15.878  18.529  0.00  0.00    +0.480 C 
ATOM     30  O   UNL     1      45.898  16.625  17.610  0.00  0.00    -0.484 OA
BRANCH   3   2
ATOM      1  C   UNL     1      45.336  13.915  19.579  0.00  0.00    +0.269 C 
ATOM      2  O   UNL     1      45.853  14.570  18.418  0.00  0.00    -0.349 OA
ENDBRANCH   3   2
ENDBRANCH   4   3
BRANCH  22  23
ATOM     23  O   UNL     1      50.235  16.124  17.033  0.00  0.00    -0.354 OA
ATOM     24  C   UNL     1      51.132  15.011  17.011  0.00  0.00    +0.293 C 
ENDBRANCH  22  23
TORSDOF 3
ENDMDL
MODEL 9
REMARK VINA RESULT:      -5.5      5.470      9.105
REMARK  Name = ZINC95486215
REMARK  5 active torsions:
REMARK  status: ('A' for Active; 'I' for Inactive)
REMARK    1  A    between atoms: C1_1  and  O1_2
REMARK    2  A    between atoms: O1_2  and  C2_3
REMARK    3  A    between atoms: C2_3  and  C3_5
REMARK    4  A    between atoms: C20_26  and  O4_28
REMARK    5  A    between atoms: O4_28  and  C21_29
REMARK                            x       y       z     vdW  Elec       q    Type
REMARK                         _______ _______ _______ _____ _____    ______ ____
ROOT
ATOM      4  C   UNL     1      49.301  18.084  19.107  0.00  0.00    +0.053 C 
ATOM      5  C   UNL     1      49.742  19.382  18.399  0.00  0.00    +0.079 C 
ATOM      6  C   UNL     1      51.156  19.754  18.842  0.00  0.00    -0.063 C 
ATOM      7  C   UNL     1      51.491  21.164  18.356  0.00  0.00    +0.069 C 
ATOM      8  C   UNL     1      51.412  21.178  16.831  0.00  0.00    +0.061 C 
ATOM      9  C   UNL     1      52.345  20.143  16.237  0.00  0.00    +0.247 C 
ATOM     10  N   UNL     1      52.340  18.849  16.851  0.00  0.00    -0.370 N 
ATOM     11  H   UNL     1      53.261  18.452  16.639  0.00  0.00    +0.425 HD
ATOM     12  C   UNL     1      51.365  17.911  16.253  0.00  0.00    +0.256 C 
ATOM     13  C   UNL     1      51.338  16.729  17.255  0.00  0.00    +0.094 C 
ATOM     14  C   UNL     1      51.683  17.362  18.608  0.00  0.00    -0.024 C 
ATOM     15  C   UNL     1      52.643  16.453  19.313  0.00  0.00    -0.143 A 
ATOM     16  C   UNL     1      54.007  16.305  19.228  0.00  0.00    +0.060 A 
ATOM     17  C   UNL     1      54.590  15.329  20.029  0.00  0.00    +0.003 A 
ATOM     18  C   UNL     1      53.835  14.545  20.875  0.00  0.00    +0.057 A 
ATOM     19  C   UNL     1      52.457  14.692  20.977  0.00  0.00    +0.033 A 
ATOM     20  C   UNL     1      51.862  15.665  20.182  0.00  0.00    +0.146 A 
ATOM     21  N   UNL     1      50.500  16.026  20.092  0.00  0.00    -0.534 N 
ATOM     22  C   UNL     1      49.452  15.243  20.412  0.00  0.00    +0.683 C 
ATOM     25  O   UNL     1      48.320  15.681  20.335  0.00  0.00    -0.542 OA
ATOM     26  C   UNL     1      51.235  19.709  20.374  0.00  0.00    +0.077 C 
ATOM     27  C   UNL     1      51.029  18.265  20.837  0.00  0.00    +0.042 C 
ATOM     28  C   UNL     1      52.201  18.769  18.303  0.00  0.00    +0.210 C 
ATOM     29  C   UNL     1      50.541  17.419  19.632  0.00  0.00    +0.229 C 
ENDROOT
BRANCH   4   3
ATOM      3  C   UNL     1      48.439  17.263  18.203  0.00  0.00    +0.480 C 
ATOM     30  O   UNL     1      48.943  16.484  17.429  0.00  0.00    -0.484 OA
BRANCH   3   2
ATOM      1  C   UNL     1      46.345  16.657  17.287  0.00  0.00    +0.269 C 
ATOM      2  O   UNL     1      47.104  17.393  18.249  0.00  0.00    -0.349 OA
ENDBRANCH   3   2
ENDBRANCH   4   3
BRANCH  22  23
ATOM     23  O   UNL     1      49.657  13.975  20.816  0.00  0.00    -0.354 OA
ATOM     24  C   UNL     1      49.072  12.939  20.024  0.00  0.00    +0.293 C 
ENDBRANCH  22  23
TORSDOF 3
ENDMDL
