MODEL 1
REMARK VINA RESULT:      -6.1      0.000      0.000
REMARK  Name = ZINC01663630
REMARK  7 active torsions:
REMARK  status: ('A' for Active; 'I' for Inactive)
REMARK    1  A    between atoms: C1_1  and  O1_2
REMARK    2  A    between atoms: O1_2  and  C2_3
REMARK    3  A    between atoms: C4_5  and  O6_25
REMARK    4  A    between atoms: C15_18  and  O5_23
REMARK    5  A    between atoms: C16_19  and  O4_21
REMARK    6  A    between atoms: O4_21  and  C18_22
REMARK    7  A    between atoms: O5_23  and  C19_24
REMARK                            x       y       z     vdW  Elec       q    Type
REMARK                         _______ _______ _______ _____ _____    ______ ____
ROOT
ATOM      3  C   UNL     1      41.639  20.887  18.974  0.00  0.00    +0.216 A 
ATOM      4  C   UNL     1      42.053  22.202  18.806  0.00  0.00    -0.137 A 
ATOM      5  C   UNL     1      43.225  22.640  19.396  0.00  0.00    +0.245 A 
ATOM      8  C   UNL     1      43.985  21.747  20.169  0.00  0.00    -0.314 A 
ATOM      9  C   UNL     1      43.573  20.412  20.325  0.00  0.00    +0.234 A 
ATOM     10  O   UNL     1      44.305  19.525  21.039  0.00  0.00    -0.298 OA
ATOM     11  C   UNL     1      45.192  20.009  22.049  0.00  0.00    +0.302 C 
ATOM     12  C   UNL     1      46.069  21.117  21.458  0.00  0.00    -0.104 C 
ATOM     13  C   UNL     1      47.102  21.669  22.457  0.00  0.00    +0.156 C 
ATOM     14  C   UNL     1      48.158  21.157  21.540  0.00  0.00    -0.114 A 
ATOM     15  C   UNL     1      49.525  21.040  21.334  0.00  0.00    +0.016 A 
ATOM     16  C   UNL     1      49.879  20.383  20.152  0.00  0.00    +0.107 A 
ATOM     19  C   UNL     1      48.946  19.890  19.255  0.00  0.00    +0.093 A 
ATOM     22  C   UNL     1      47.566  20.001  19.450  0.00  0.00    +0.033 A 
ATOM     23  C   UNL     1      47.199  20.650  20.620  0.00  0.00    -0.117 A 
ATOM     24  C   UNL     1      45.213  22.199  20.837  0.00  0.00    +0.428 C 
ATOM     25  O   UNL     1      45.523  23.371  20.888  0.00  0.00    -0.425 OA
ATOM     26  C   UNL     1      42.394  19.997  19.727  0.00  0.00    -0.059 A 
ENDROOT
BRANCH   3   2
ATOM      1  C   UNL     1      39.378  21.375  18.436  0.00  0.00    +0.254 C 
ATOM      2  O   UNL     1      40.482  20.469  18.403  0.00  0.00    -0.304 OA
ENDBRANCH   3   2
BRANCH   5   6
ATOM      6  O   UNL     1      43.637  23.921  19.230  0.00  0.00    -0.479 OA
ATOM      7  H   UNL     1      43.730  24.188  18.306  0.00  0.00    +0.404 HD
ENDBRANCH   5   6
BRANCH  16  17
ATOM     17  O   UNL     1      51.199  20.223  19.869  0.00  0.00    -0.306 OA
ATOM     18  C   UNL     1      51.915  21.382  19.437  0.00  0.00    +0.238 C 
ENDBRANCH  16  17
BRANCH  19  20
ATOM     20  O   UNL     1      49.394  19.266  18.132  0.00  0.00    -0.306 OA
ATOM     21  C   UNL     1      49.201  17.852  18.054  0.00  0.00    +0.237 C 
ENDBRANCH  19  20
TORSDOF 4
ENDMDL
MODEL 2
REMARK VINA RESULT:      -5.7      4.624      8.553
REMARK  Name = ZINC01663630
REMARK  7 active torsions:
REMARK  status: ('A' for Active; 'I' for Inactive)
REMARK    1  A    between atoms: C1_1  and  O1_2
REMARK    2  A    between atoms: O1_2  and  C2_3
REMARK    3  A    between atoms: C4_5  and  O6_25
REMARK    4  A    between atoms: C15_18  and  O5_23
REMARK    5  A    between atoms: C16_19  and  O4_21
REMARK    6  A    between atoms: O4_21  and  C18_22
REMARK    7  A    between atoms: O5_23  and  C19_24
REMARK                            x       y       z     vdW  Elec       q    Type
REMARK                         _______ _______ _______ _____ _____    ______ ____
ROOT
ATOM      3  C   UNL     1      48.795  13.454  15.986  0.00  0.00    +0.216 A 
ATOM      4  C   UNL     1      47.560  12.839  15.828  0.00  0.00    -0.137 A 
ATOM      5  C   UNL     1      46.583  12.991  16.796  0.00  0.00    +0.245 A 
ATOM      8  C   UNL     1      46.854  13.764  17.937  0.00  0.00    -0.314 A 
ATOM      9  C   UNL     1      48.100  14.399  18.086  0.00  0.00    +0.234 A 
ATOM     10  O   UNL     1      48.373  15.174  19.162  0.00  0.00    -0.298 OA
ATOM     11  C   UNL     1      47.651  14.960  20.376  0.00  0.00    +0.302 C 
ATOM     12  C   UNL     1      46.150  14.932  20.068  0.00  0.00    -0.104 C 
ATOM     13  C   UNL     1      45.278  14.759  21.325  0.00  0.00    +0.156 C 
ATOM     14  C   UNL     1      44.712  16.105  21.030  0.00  0.00    -0.114 A 
ATOM     15  C   UNL     1      43.814  17.076  21.448  0.00  0.00    +0.016 A 
ATOM     16  C   UNL     1      43.771  18.214  20.636  0.00  0.00    +0.107 A 
ATOM     19  C   UNL     1      44.556  18.363  19.505  0.00  0.00    +0.093 A 
ATOM     22  C   UNL     1      45.464  17.392  19.073  0.00  0.00    +0.033 A 
ATOM     23  C   UNL     1      45.520  16.258  19.869  0.00  0.00    -0.117 A 
ATOM     24  C   UNL     1      45.846  13.908  18.995  0.00  0.00    +0.428 C 
ATOM     25  O   UNL     1      44.829  13.246  19.010  0.00  0.00    -0.425 OA
ATOM     26  C   UNL     1      49.064  14.230  17.106  0.00  0.00    -0.059 A 
ENDROOT
BRANCH   3   2
ATOM      1  C   UNL     1      49.399  12.526  13.884  0.00  0.00    +0.254 C 
ATOM      2  O   UNL     1      49.753  13.289  15.039  0.00  0.00    -0.304 OA
ENDBRANCH   3   2
BRANCH   5   6
ATOM      6  O   UNL     1      45.373  12.398  16.645  0.00  0.00    -0.479 OA
ATOM      7  H   UNL     1      44.627  13.011  16.675  0.00  0.00    +0.404 HD
ENDBRANCH   5   6
BRANCH  16  17
ATOM     17  O   UNL     1      42.918  19.218  20.972  0.00  0.00    -0.306 OA
ATOM     18  C   UNL     1      41.525  18.901  21.007  0.00  0.00    +0.238 C 
ENDBRANCH  16  17
BRANCH  19  20
ATOM     20  O   UNL     1      44.439  19.509  18.782  0.00  0.00    -0.306 OA
ATOM     21  C   UNL     1      45.573  20.378  18.755  0.00  0.00    +0.237 C 
ENDBRANCH  19  20
TORSDOF 4
ENDMDL
MODEL 3
REMARK VINA RESULT:      -5.3      5.128      9.223
REMARK  Name = ZINC01663630
REMARK  7 active torsions:
REMARK  status: ('A' for Active; 'I' for Inactive)
REMARK    1  A    between atoms: C1_1  and  O1_2
REMARK    2  A    between atoms: O1_2  and  C2_3
REMARK    3  A    between atoms: C4_5  and  O6_25
REMARK    4  A    between atoms: C15_18  and  O5_23
REMARK    5  A    between atoms: C16_19  and  O4_21
REMARK    6  A    between atoms: O4_21  and  C18_22
REMARK    7  A    between atoms: O5_23  and  C19_24
REMARK                            x       y       z     vdW  Elec       q    Type
REMARK                         _______ _______ _______ _____ _____    ______ ____
ROOT
ATOM      3  C   UNL     1      49.504  12.858  14.808  0.00  0.00    +0.216 A 
ATOM      4  C   UNL     1      48.257  12.271  14.636  0.00  0.00    -0.137 A 
ATOM      5  C   UNL     1      47.310  12.354  15.641  0.00  0.00    +0.245 A 
ATOM      8  C   UNL     1      47.622  13.028  16.832  0.00  0.00    -0.314 A 
ATOM      9  C   UNL     1      48.879  13.636  16.997  0.00  0.00    +0.234 A 
ATOM     10  O   UNL     1      49.191  14.318  18.124  0.00  0.00    -0.298 OA
ATOM     11  C   UNL     1      48.500  14.013  19.337  0.00  0.00    +0.302 C 
ATOM     12  C   UNL     1      46.992  14.025  19.071  0.00  0.00    -0.104 C 
ATOM     13  C   UNL     1      46.153  13.760  20.333  0.00  0.00    +0.156 C 
ATOM     14  C   UNL     1      45.595  15.131  20.166  0.00  0.00    -0.114 A 
ATOM     15  C   UNL     1      44.722  16.074  20.686  0.00  0.00    +0.016 A 
ATOM     16  C   UNL     1      44.671  17.275  19.972  0.00  0.00    +0.107 A 
ATOM     19  C   UNL     1      45.426  17.508  18.834  0.00  0.00    +0.093 A 
ATOM     22  C   UNL     1      46.310  16.566  18.299  0.00  0.00    +0.033 A 
ATOM     23  C   UNL     1      46.373  15.370  18.998  0.00  0.00    -0.117 A 
ATOM     24  C   UNL     1      46.645  13.096  17.927  0.00  0.00    +0.428 C 
ATOM     25  O   UNL     1      45.620  12.445  17.917  0.00  0.00    -0.425 OA
ATOM     26  C   UNL     1      49.814  13.537  15.979  0.00  0.00    -0.059 A 
ENDROOT
BRANCH   3   2
ATOM      1  C   UNL     1      51.740  13.260  14.113  0.00  0.00    +0.254 C 
ATOM      2  O   UNL     1      50.433  12.762  13.823  0.00  0.00    -0.304 OA
ENDBRANCH   3   2
BRANCH   5   6
ATOM      6  O   UNL     1      46.088  11.787  15.477  0.00  0.00    -0.479 OA
ATOM      7  H   UNL     1      45.905  11.061  16.087  0.00  0.00    +0.404 HD
ENDBRANCH   5   6
BRANCH  16  17
ATOM     17  O   UNL     1      43.840  18.257  20.412  0.00  0.00    -0.306 OA
ATOM     18  C   UNL     1      44.212  18.931  21.616  0.00  0.00    +0.238 C 
ENDBRANCH  16  17
BRANCH  19  20
ATOM     20  O   UNL     1      45.303  18.710  18.210  0.00  0.00    -0.306 OA
ATOM     21  C   UNL     1      46.302  19.692  18.492  0.00  0.00    +0.237 C 
ENDBRANCH  19  20
TORSDOF 4
ENDMDL
MODEL 4
REMARK VINA RESULT:      -5.3      4.384      6.438
REMARK  Name = ZINC01663630
REMARK  7 active torsions:
REMARK  status: ('A' for Active; 'I' for Inactive)
REMARK    1  A    between atoms: C1_1  and  O1_2
REMARK    2  A    between atoms: O1_2  and  C2_3
REMARK    3  A    between atoms: C4_5  and  O6_25
REMARK    4  A    between atoms: C15_18  and  O5_23
REMARK    5  A    between atoms: C16_19  and  O4_21
REMARK    6  A    between atoms: O4_21  and  C18_22
REMARK    7  A    between atoms: O5_23  and  C19_24
REMARK                            x       y       z     vdW  Elec       q    Type
REMARK                         _______ _______ _______ _____ _____    ______ ____
ROOT
ATOM      3  C   UNL     1      46.944  13.010  17.990  0.00  0.00    +0.216 A 
ATOM      4  C   UNL     1      46.656  13.661  16.798  0.00  0.00    -0.137 A 
ATOM      5  C   UNL     1      46.703  15.042  16.735  0.00  0.00    +0.245 A 
ATOM      8  C   UNL     1      47.038  15.776  17.885  0.00  0.00    -0.314 A 
ATOM      9  C   UNL     1      47.346  15.114  19.087  0.00  0.00    +0.234 A 
ATOM     10  O   UNL     1      47.701  15.799  20.199  0.00  0.00    -0.298 OA
ATOM     11  C   UNL     1      47.284  17.157  20.344  0.00  0.00    +0.302 C 
ATOM     12  C   UNL     1      47.640  17.929  19.070  0.00  0.00    -0.104 C 
ATOM     13  C   UNL     1      47.279  19.423  19.147  0.00  0.00    +0.156 C 
ATOM     14  C   UNL     1      48.735  19.710  19.019  0.00  0.00    -0.114 A 
ATOM     15  C   UNL     1      49.695  20.708  18.958  0.00  0.00    +0.016 A 
ATOM     16  C   UNL     1      51.007  20.244  18.822  0.00  0.00    +0.107 A 
ATOM     19  C   UNL     1      51.327  18.898  18.751  0.00  0.00    +0.093 A 
ATOM     22  C   UNL     1      50.369  17.882  18.811  0.00  0.00    +0.033 A 
ATOM     23  C   UNL     1      49.063  18.327  18.947  0.00  0.00    -0.117 A 
ATOM     24  C   UNL     1      47.058  17.245  17.852  0.00  0.00    +0.428 C 
ATOM     25  O   UNL     1      46.632  17.872  16.905  0.00  0.00    -0.425 OA
ATOM     26  C   UNL     1      47.288  13.730  19.127  0.00  0.00    -0.059 A 
ENDROOT
BRANCH   3   2
ATOM      1  C   UNL     1      46.731  10.960  16.809  0.00  0.00    +0.254 C 
ATOM      2  O   UNL     1      46.883  11.656  18.048  0.00  0.00    -0.304 OA
ENDBRANCH   3   2
BRANCH   5   6
ATOM      6  O   UNL     1      46.428  15.684  15.572  0.00  0.00    -0.479 OA
ATOM      7  H   UNL     1      46.846  15.288  14.796  0.00  0.00    +0.404 HD
ENDBRANCH   5   6
BRANCH  16  17
ATOM     17  O   UNL     1      52.014  21.156  18.754  0.00  0.00    -0.306 OA
ATOM     18  C   UNL     1      52.452  21.732  19.987  0.00  0.00    +0.238 C 
ENDBRANCH  16  17
BRANCH  19  20
ATOM     20  O   UNL     1      52.635  18.550  18.617  0.00  0.00    -0.306 OA
ATOM     21  C   UNL     1      52.985  17.205  18.950  0.00  0.00    +0.237 C 
ENDBRANCH  19  20
TORSDOF 4
ENDMDL
MODEL 5
REMARK VINA RESULT:      -5.2      3.757      7.165
REMARK  Name = ZINC01663630
REMARK  7 active torsions:
REMARK  status: ('A' for Active; 'I' for Inactive)
REMARK    1  A    between atoms: C1_1  and  O1_2
REMARK    2  A    between atoms: O1_2  and  C2_3
REMARK    3  A    between atoms: C4_5  and  O6_25
REMARK    4  A    between atoms: C15_18  and  O5_23
REMARK    5  A    between atoms: C16_19  and  O4_21
REMARK    6  A    between atoms: O4_21  and  C18_22
REMARK    7  A    between atoms: O5_23  and  C19_24
REMARK                            x       y       z     vdW  Elec       q    Type
REMARK                         _______ _______ _______ _____ _____    ______ ____
ROOT
ATOM      3  C   UNL     1      46.460  12.970  17.993  0.00  0.00    +0.216 A 
ATOM      4  C   UNL     1      46.712  13.127  19.350  0.00  0.00    -0.137 A 
ATOM      5  C   UNL     1      47.128  14.353  19.838  0.00  0.00    +0.245 A 
ATOM      8  C   UNL     1      47.297  15.429  18.952  0.00  0.00    -0.314 A 
ATOM      9  C   UNL     1      47.025  15.272  17.581  0.00  0.00    +0.234 A 
ATOM     10  O   UNL     1      47.151  16.303  16.713  0.00  0.00    -0.298 OA
ATOM     11  C   UNL     1      48.027  17.384  17.038  0.00  0.00    +0.302 C 
ATOM     12  C   UNL     1      47.712  17.875  18.454  0.00  0.00    -0.104 C 
ATOM     13  C   UNL     1      48.569  19.080  18.881  0.00  0.00    +0.156 C 
ATOM     14  C   UNL     1      47.304  19.861  18.966  0.00  0.00    -0.114 A 
ATOM     15  C   UNL     1      46.750  21.099  19.253  0.00  0.00    +0.016 A 
ATOM     16  C   UNL     1      45.359  21.157  19.123  0.00  0.00    +0.107 A 
ATOM     19  C   UNL     1      44.592  20.069  18.741  0.00  0.00    +0.093 A 
ATOM     22  C   UNL     1      45.137  18.816  18.449  0.00  0.00    +0.033 A 
ATOM     23  C   UNL     1      46.516  18.743  18.572  0.00  0.00    -0.117 A 
ATOM     24  C   UNL     1      47.773  16.730  19.442  0.00  0.00    +0.428 C 
ATOM     25  O   UNL     1      48.192  16.877  20.571  0.00  0.00    -0.425 OA
ATOM     26  C   UNL     1      46.614  14.034  17.114  0.00  0.00    -0.059 A 
ENDROOT
BRANCH   3   2
ATOM      1  C   UNL     1      46.513  11.398  16.212  0.00  0.00    +0.254 C 
ATOM      2  O   UNL     1      46.065  11.761  17.520  0.00  0.00    -0.304 OA
ENDBRANCH   3   2
BRANCH   5   6
ATOM      6  O   UNL     1      47.370  14.515  21.162  0.00  0.00    -0.479 OA
ATOM      7  H   UNL     1      47.891  15.301  21.374  0.00  0.00    +0.404 HD
ENDBRANCH   5   6
BRANCH  16  17
ATOM     17  O   UNL     1      44.731  22.335  19.386  0.00  0.00    -0.306 OA
ATOM     18  C   UNL     1      44.716  22.773  20.746  0.00  0.00    +0.238 C 
ENDBRANCH  16  17
BRANCH  19  20
ATOM     20  O   UNL     1      43.244  20.229  18.645  0.00  0.00    -0.306 OA
ATOM     21  C   UNL     1      42.444  19.608  19.653  0.00  0.00    +0.237 C 
ENDBRANCH  19  20
TORSDOF 4
ENDMDL
MODEL 6
REMARK VINA RESULT:      -5.2      2.314      3.179
REMARK  Name = ZINC01663630
REMARK  7 active torsions:
REMARK  status: ('A' for Active; 'I' for Inactive)
REMARK    1  A    between atoms: C1_1  and  O1_2
REMARK    2  A    between atoms: O1_2  and  C2_3
REMARK    3  A    between atoms: C4_5  and  O6_25
REMARK    4  A    between atoms: C15_18  and  O5_23
REMARK    5  A    between atoms: C16_19  and  O4_21
REMARK    6  A    between atoms: O4_21  and  C18_22
REMARK    7  A    between atoms: O5_23  and  C19_24
REMARK                            x       y       z     vdW  Elec       q    Type
REMARK                         _______ _______ _______ _____ _____    ______ ____
ROOT
ATOM      3  C   UNL     1      43.005  18.854  21.221  0.00  0.00    +0.216 A 
ATOM      4  C   UNL     1      42.899  19.790  20.200  0.00  0.00    -0.137 A 
ATOM      5  C   UNL     1      44.039  20.350  19.654  0.00  0.00    +0.245 A 
ATOM      8  C   UNL     1      45.299  19.970  20.144  0.00  0.00    -0.314 A 
ATOM      9  C   UNL     1      45.405  19.010  21.166  0.00  0.00    +0.234 A 
ATOM     10  O   UNL     1      46.609  18.604  21.632  0.00  0.00    -0.298 OA
ATOM     11  C   UNL     1      47.737  19.470  21.494  0.00  0.00    +0.302 C 
ATOM     12  C   UNL     1      47.827  19.947  20.040  0.00  0.00    -0.104 C 
ATOM     13  C   UNL     1      49.047  20.847  19.774  0.00  0.00    +0.156 C 
ATOM     14  C   UNL     1      49.531  19.794  18.837  0.00  0.00    -0.114 A 
ATOM     15  C   UNL     1      50.542  19.430  17.961  0.00  0.00    +0.016 A 
ATOM     16  C   UNL     1      50.359  18.187  17.348  0.00  0.00    +0.107 A 
ATOM     19  C   UNL     1      49.258  17.382  17.590  0.00  0.00    +0.093 A 
ATOM     22  C   UNL     1      48.232  17.737  18.470  0.00  0.00    +0.033 A 
ATOM     23  C   UNL     1      48.400  18.967  19.087  0.00  0.00    -0.117 A 
ATOM     24  C   UNL     1      46.523  20.579  19.606  0.00  0.00    +0.428 C 
ATOM     25  O   UNL     1      46.490  21.534  18.857  0.00  0.00    -0.425 OA
ATOM     26  C   UNL     1      44.249  18.464  21.700  0.00  0.00    -0.059 A 
ENDROOT
BRANCH   3   2
ATOM      1  C   UNL     1      40.632  18.869  21.337  0.00  0.00    +0.254 C 
ATOM      2  O   UNL     1      41.881  18.319  21.760  0.00  0.00    -0.304 OA
ENDBRANCH   3   2
BRANCH   5   6
ATOM      6  O   UNL     1      43.942  21.261  18.654  0.00  0.00    -0.479 OA
ATOM      7  H   UNL     1      44.103  22.172  18.933  0.00  0.00    +0.404 HD
ENDBRANCH   5   6
BRANCH  16  17
ATOM     17  O   UNL     1      51.304  17.750  16.473  0.00  0.00    -0.306 OA
ATOM     18  C   UNL     1      51.975  18.743  15.694  0.00  0.00    +0.238 C 
ENDBRANCH  16  17
BRANCH  19  20
ATOM     20  O   UNL     1      49.173  16.189  16.941  0.00  0.00    -0.306 OA
ATOM     21  C   UNL     1      48.225  15.245  17.442  0.00  0.00    +0.237 C 
ENDBRANCH  19  20
TORSDOF 4
ENDMDL
MODEL 7
REMARK VINA RESULT:      -5.0      3.135      5.149
REMARK  Name = ZINC01663630
REMARK  7 active torsions:
REMARK  status: ('A' for Active; 'I' for Inactive)
REMARK    1  A    between atoms: C1_1  and  O1_2
REMARK    2  A    between atoms: O1_2  and  C2_3
REMARK    3  A    between atoms: C4_5  and  O6_25
REMARK    4  A    between atoms: C15_18  and  O5_23
REMARK    5  A    between atoms: C16_19  and  O4_21
REMARK    6  A    between atoms: O4_21  and  C18_22
REMARK    7  A    between atoms: O5_23  and  C19_24
REMARK                            x       y       z     vdW  Elec       q    Type
REMARK                         _______ _______ _______ _____ _____    ______ ____
ROOT
ATOM      3  C   UNL     1      43.301  18.202  21.206  0.00  0.00    +0.216 A 
ATOM      4  C   UNL     1      43.710  16.979  21.723  0.00  0.00    -0.137 A 
ATOM      5  C   UNL     1      44.737  16.280  21.114  0.00  0.00    +0.245 A 
ATOM      8  C   UNL     1      45.354  16.813  19.971  0.00  0.00    -0.314 A 
ATOM      9  C   UNL     1      44.950  18.059  19.460  0.00  0.00    +0.234 A 
ATOM     10  O   UNL     1      45.552  18.607  18.378  0.00  0.00    -0.298 OA
ATOM     11  C   UNL     1      46.218  17.754  17.445  0.00  0.00    +0.302 C 
ATOM     12  C   UNL     1      47.167  16.823  18.206  0.00  0.00    -0.104 C 
ATOM     13  C   UNL     1      47.976  15.897  17.280  0.00  0.00    +0.156 C 
ATOM     14  C   UNL     1      49.200  16.583  17.780  0.00  0.00    -0.114 A 
ATOM     15  C   UNL     1      50.583  16.645  17.695  0.00  0.00    +0.016 A 
ATOM     16  C   UNL     1      51.172  17.612  18.515  0.00  0.00    +0.107 A 
ATOM     19  C   UNL     1      50.439  18.441  19.348  0.00  0.00    +0.093 A 
ATOM     22  C   UNL     1      49.046  18.390  19.443  0.00  0.00    +0.033 A 
ATOM     23  C   UNL     1      48.446  17.436  18.634  0.00  0.00    -0.117 A 
ATOM     24  C   UNL     1      46.422  16.070  19.287  0.00  0.00    +0.428 C 
ATOM     25  O   UNL     1      46.689  14.921  19.570  0.00  0.00    -0.425 OA
ATOM     26  C   UNL     1      43.917  18.740  20.083  0.00  0.00    -0.059 A 
ENDROOT
BRANCH   3   2
ATOM      1  C   UNL     1      41.035  18.907  21.109  0.00  0.00    +0.254 C 
ATOM      2  O   UNL     1      42.285  18.876  21.800  0.00  0.00    -0.304 OA
ENDBRANCH   3   2
BRANCH   5   6
ATOM      6  O   UNL     1      45.144  15.088  21.617  0.00  0.00    -0.479 OA
ATOM      7  H   UNL     1      44.425  14.533  21.947  0.00  0.00    +0.404 HD
ENDBRANCH   5   6
BRANCH  16  17
ATOM     17  O   UNL     1      52.525  17.742  18.496  0.00  0.00    -0.306 OA
ATOM     18  C   UNL     1      53.285  16.710  19.129  0.00  0.00    +0.238 C 
ENDBRANCH  16  17
BRANCH  19  20
ATOM     20  O   UNL     1      51.108  19.350  20.108  0.00  0.00    -0.306 OA
ATOM     21  C   UNL     1      50.349  20.444  20.628  0.00  0.00    +0.237 C 
ENDBRANCH  19  20
TORSDOF 4
ENDMDL
MODEL 8
REMARK VINA RESULT:      -4.9      5.029      9.349
REMARK  Name = ZINC01663630
REMARK  7 active torsions:
REMARK  status: ('A' for Active; 'I' for Inactive)
REMARK    1  A    between atoms: C1_1  and  O1_2
REMARK    2  A    between atoms: O1_2  and  C2_3
REMARK    3  A    between atoms: C4_5  and  O6_25
REMARK    4  A    between atoms: C15_18  and  O5_23
REMARK    5  A    between atoms: C16_19  and  O4_21
REMARK    6  A    between atoms: O4_21  and  C18_22
REMARK    7  A    between atoms: O5_23  and  C19_24
REMARK                            x       y       z     vdW  Elec       q    Type
REMARK                         _______ _______ _______ _____ _____    ______ ____
ROOT
ATOM      3  C   UNL     1      50.573  12.406  13.546  0.00  0.00    +0.216 A 
ATOM      4  C   UNL     1      49.205  12.628  13.638  0.00  0.00    -0.137 A 
ATOM      5  C   UNL     1      48.676  13.231  14.765  0.00  0.00    +0.245 A 
ATOM      8  C   UNL     1      49.531  13.609  15.813  0.00  0.00    -0.314 A 
ATOM      9  C   UNL     1      50.918  13.399  15.711  0.00  0.00    +0.234 A 
ATOM     10  O   UNL     1      51.764  13.784  16.694  0.00  0.00    -0.298 OA
ATOM     11  C   UNL     1      51.267  13.923  18.026  0.00  0.00    +0.302 C 
ATOM     12  C   UNL     1      50.003  14.787  18.002  0.00  0.00    -0.104 C 
ATOM     13  C   UNL     1      49.417  15.042  19.403  0.00  0.00    +0.156 C 
ATOM     14  C   UNL     1      49.696  16.488  19.179  0.00  0.00    -0.114 A 
ATOM     15  C   UNL     1      49.613  17.759  19.726  0.00  0.00    +0.016 A 
ATOM     16  C   UNL     1      50.101  18.778  18.904  0.00  0.00    +0.107 A 
ATOM     19  C   UNL     1      50.625  18.544  17.643  0.00  0.00    +0.093 A 
ATOM     22  C   UNL     1      50.715  17.268  17.079  0.00  0.00    +0.033 A 
ATOM     23  C   UNL     1      50.235  16.246  17.884  0.00  0.00    -0.117 A 
ATOM     24  C   UNL     1      48.987  14.218  17.035  0.00  0.00    +0.428 C 
ATOM     25  O   UNL     1      47.795  14.261  17.256  0.00  0.00    -0.425 OA
ATOM     26  C   UNL     1      51.425  12.790  14.574  0.00  0.00    -0.059 A 
ENDROOT
BRANCH   3   2
ATOM      1  C   UNL     1      51.077  12.555  11.230  0.00  0.00    +0.254 C 
ATOM      2  O   UNL     1      51.083  11.802  12.444  0.00  0.00    -0.304 OA
ENDBRANCH   3   2
BRANCH   5   6
ATOM      6  O   UNL     1      47.342  13.455  14.857  0.00  0.00    -0.479 OA
ATOM      7  H   UNL     1      47.111  14.355  15.125  0.00  0.00    +0.404 HD
ENDBRANCH   5   6
BRANCH  16  17
ATOM     17  O   UNL     1      50.059  20.058  19.362  0.00  0.00    -0.306 OA
ATOM     18  C   UNL     1      48.773  20.679  19.434  0.00  0.00    +0.238 C 
ENDBRANCH  16  17
BRANCH  19  20
ATOM     20  O   UNL     1      51.074  19.605  16.921  0.00  0.00    -0.306 OA
ATOM     21  C   UNL     1      51.996  19.328  15.864  0.00  0.00    +0.237 C 
ENDBRANCH  19  20
TORSDOF 4
ENDMDL
MODEL 9
REMARK VINA RESULT:      -4.9     21.259     23.360
REMARK  Name = ZINC01663630
REMARK  7 active torsions:
REMARK  status: ('A' for Active; 'I' for Inactive)
REMARK    1  A    between atoms: C1_1  and  O1_2
REMARK    2  A    between atoms: O1_2  and  C2_3
REMARK    3  A    between atoms: C4_5  and  O6_25
REMARK    4  A    between atoms: C15_18  and  O5_23
REMARK    5  A    between atoms: C16_19  and  O4_21
REMARK    6  A    between atoms: O4_21  and  C18_22
REMARK    7  A    between atoms: O5_23  and  C19_24
REMARK                            x       y       z     vdW  Elec       q    Type
REMARK                         _______ _______ _______ _____ _____    ______ ____
ROOT
ATOM      3  C   UNL     1      57.838  27.677   0.112  0.00  0.00    +0.216 A 
ATOM      4  C   UNL     1      58.223  27.148   1.338  0.00  0.00    -0.137 A 
ATOM      5  C   UNL     1      58.411  27.984   2.423  0.00  0.00    +0.245 A 
ATOM      8  C   UNL     1      58.216  29.366   2.274  0.00  0.00    -0.314 A 
ATOM      9  C   UNL     1      57.810  29.898   1.037  0.00  0.00    +0.234 A 
ATOM     10  O   UNL     1      57.586  31.223   0.878  0.00  0.00    -0.298 OA
ATOM     11  C   UNL     1      58.229  32.149   1.755  0.00  0.00    +0.302 C 
ATOM     12  C   UNL     1      57.999  31.709   3.204  0.00  0.00    -0.104 C 
ATOM     13  C   UNL     1      58.609  32.676   4.234  0.00  0.00    +0.156 C 
ATOM     14  C   UNL     1      57.222  32.931   4.713  0.00  0.00    -0.114 A 
ATOM     15  C   UNL     1      56.445  33.631   5.623  0.00  0.00    +0.016 A 
ATOM     16  C   UNL     1      55.073  33.385   5.525  0.00  0.00    +0.107 A 
ATOM     19  C   UNL     1      54.528  32.512   4.598  0.00  0.00    +0.093 A 
ATOM     22  C   UNL     1      55.299  31.800   3.675  0.00  0.00    +0.033 A 
ATOM     23  C   UNL     1      56.664  32.035   3.759  0.00  0.00    -0.117 A 
ATOM     24  C   UNL     1      58.446  30.277   3.404  0.00  0.00    +0.428 C 
ATOM     25  O   UNL     1      58.964  29.904   4.435  0.00  0.00    -0.425 OA
ATOM     26  C   UNL     1      57.632  29.042  -0.038  0.00  0.00    -0.059 A 
ENDROOT
BRANCH   3   2
ATOM      1  C   UNL     1      58.240  25.546  -0.858  0.00  0.00    +0.254 C 
ATOM      2  O   UNL     1      57.669  26.852  -0.952  0.00  0.00    -0.304 OA
ENDBRANCH   3   2
BRANCH   5   6
ATOM      6  O   UNL     1      58.781  27.472   3.624  0.00  0.00    -0.479 OA
ATOM      7  H   UNL     1      58.096  27.528   4.304  0.00  0.00    +0.404 HD
ENDBRANCH   5   6
BRANCH  16  17
ATOM     17  O   UNL     1      54.235  34.030   6.380  0.00  0.00    -0.306 OA
ATOM     18  C   UNL     1      54.587  35.365   6.750  0.00  0.00    +0.238 C 
ENDBRANCH  16  17
BRANCH  19  20
ATOM     20  O   UNL     1      53.178  32.341   4.584  0.00  0.00    -0.306 OA
ATOM     21  C   UNL     1      52.463  32.912   3.487  0.00  0.00    +0.237 C 
ENDBRANCH  19  20
TORSDOF 4
ENDMDL
