MODEL 1
REMARK VINA RESULT:      -6.5      0.000      0.000
REMARK  Name = ZINC95485964
REMARK  17 active torsions:
REMARK  status: ('A' for Active; 'I' for Inactive)
REMARK    1  A    between atoms: C1_1  and  C2_2
REMARK    2  A    between atoms: C10_10  and  O1_18
REMARK    3  A    between atoms: C11_11  and  C12_12
REMARK    4  A    between atoms: C12_12  and  C13_13
REMARK    5  A    between atoms: C13_13  and  C14_14
REMARK    6  A    between atoms: C15_15  and  C16_16
REMARK    7  A    between atoms: C15_15  and  C17_17
REMARK    8  A    between atoms: C21_24  and  C22_25
REMARK    9  A    between atoms: C21_24  and  C28_31
REMARK   10  A    between atoms: C22_25  and  C23_26
REMARK   11  A    between atoms: C23_26  and  C24_27
REMARK   12  A    between atoms: C25_28  and  C26_29
REMARK   13  A    between atoms: C25_28  and  C27_30
REMARK   14  A    between atoms: C28_31  and  C29_32
REMARK   15  A    between atoms: C29_32  and  C30_33
REMARK   16  A    between atoms: C31_34  and  C32_35
REMARK   17  A    between atoms: C31_34  and  C33_36
REMARK                            x       y       z     vdW  Elec       q    Type
REMARK                         _______ _______ _______ _____ _____    ______ ____
ROOT
ATOM      1  C   UNL     1      45.532  22.242  18.800  0.00  0.00    +0.075 C 
ATOM      2  C   UNL     1      45.943  20.884  19.308  0.00  0.00    -0.046 A 
ATOM      3  C   UNL     1      47.210  20.436  19.076  0.00  0.00    -0.054 A 
ATOM      4  C   UNL     1      47.603  19.172  19.541  0.00  0.00    +0.047 A 
ATOM      5  C   UNL     1      48.903  18.684  19.302  0.00  0.00    -0.161 A 
ATOM      6  C   UNL     1      49.282  17.460  19.757  0.00  0.00    +0.062 A 
ATOM      7  C   UNL     1      48.379  16.664  20.487  0.00  0.00    -0.381 A 
ATOM      8  C   UNL     1      48.775  15.354  21.020  0.00  0.00    +0.406 C 
ATOM      9  C   UNL     1      50.045  14.715  20.501  0.00  0.00    -0.001 C 
ATOM     10  C   UNL     1      51.057  15.834  20.337  0.00  0.00    +0.390 C 
ATOM     11  O   UNL     1      52.126  15.797  20.900  0.00  0.00    -0.452 OA
ATOM     12  O   UNL     1      48.098  14.796  21.857  0.00  0.00    -0.457 OA
ATOM     13  C   UNL     1      47.075  17.114  20.732  0.00  0.00    +0.344 A 
ATOM     14  O   UNL     1      46.205  16.340  21.421  0.00  0.00    -0.615 OA
ATOM     15  C   UNL     1      50.683  16.994  19.449  0.00  0.00    -0.066 C 
ATOM     28  C   UNL     1      46.677  18.377  20.258  0.00  0.00    -0.177 A 
ATOM     29  C   UNL     1      45.374  18.862  20.482  0.00  0.00    +0.187 A 
ATOM     32  C   UNL     1      45.026  20.111  20.010  0.00  0.00    -0.181 A 
ENDROOT
BRANCH  29  30
ATOM     30  O   UNL     1      44.471  18.111  21.162  0.00  0.00    -0.472 OA
ATOM     31  H   UNL     1      43.550  18.339  20.974  0.00  0.00    +0.382 HD
ENDBRANCH  29  30
BRANCH  15  16
ATOM     16  C   UNL     1      51.662  18.146  19.682  0.00  0.00    +0.053 C 
BRANCH  16  17
ATOM     17  C   UNL     1      52.454  18.409  18.399  0.00  0.00    +0.050 C 
BRANCH  17  18
ATOM     18  C   UNL     1      52.167  19.805  17.909  0.00  0.00    -0.051 C 
ATOM     19  C   UNL     1      51.918  20.015  16.640  0.00  0.00    -0.142 C 
ATOM     20  C   UNL     1      51.590  21.404  16.157  0.00  0.00    +0.064 C 
ATOM     21  C   UNL     1      51.963  18.869  15.664  0.00  0.00    +0.073 C 
ENDBRANCH  17  18
ENDBRANCH  16  17
ENDBRANCH  15  16
BRANCH  15  22
ATOM     22  C   UNL     1      50.761  16.557  17.985  0.00  0.00    +0.063 C 
BRANCH  22  23
ATOM     23  C   UNL     1      49.387  16.715  17.332  0.00  0.00    +0.044 C 
BRANCH  23  24
ATOM     24  C   UNL     1      48.789  15.354  17.082  0.00  0.00    -0.047 C 
ATOM     25  C   UNL     1      47.495  15.223  16.934  0.00  0.00    -0.142 C 
ATOM     26  C   UNL     1      46.907  13.879  16.590  0.00  0.00    +0.069 C 
ATOM     27  C   UNL     1      46.593  16.418  17.107  0.00  0.00    +0.070 C 
ENDBRANCH  23  24
ENDBRANCH  22  23
ENDBRANCH  15  22
BRANCH  32  33
ATOM     33  C   UNL     1      43.635  20.639  20.253  0.00  0.00    +0.073 C 
BRANCH  33  34
ATOM     34  C   UNL     1      42.713  20.189  19.117  0.00  0.00    +0.052 C 
BRANCH  34  35
ATOM     35  C   UNL     1      41.514  21.098  19.055  0.00  0.00    -0.057 C 
ATOM     36  C   UNL     1      40.429  20.709  18.432  0.00  0.00    -0.140 C 
ATOM     37  C   UNL     1      39.177  21.545  18.506  0.00  0.00    +0.067 C 
ATOM     38  C   UNL     1      40.433  19.426  17.642  0.00  0.00    +0.072 C 
ENDBRANCH  34  35
ENDBRANCH  33  34
ENDBRANCH  32  33
TORSDOF 10
ENDMDL
MODEL 2
REMARK VINA RESULT:      -6.3      3.581      6.445
REMARK  Name = ZINC95485964
REMARK  17 active torsions:
REMARK  status: ('A' for Active; 'I' for Inactive)
REMARK    1  A    between atoms: C1_1  and  C2_2
REMARK    2  A    between atoms: C10_10  and  O1_18
REMARK    3  A    between atoms: C11_11  and  C12_12
REMARK    4  A    between atoms: C12_12  and  C13_13
REMARK    5  A    between atoms: C13_13  and  C14_14
REMARK    6  A    between atoms: C15_15  and  C16_16
REMARK    7  A    between atoms: C15_15  and  C17_17
REMARK    8  A    between atoms: C21_24  and  C22_25
REMARK    9  A    between atoms: C21_24  and  C28_31
REMARK   10  A    between atoms: C22_25  and  C23_26
REMARK   11  A    between atoms: C23_26  and  C24_27
REMARK   12  A    between atoms: C25_28  and  C26_29
REMARK   13  A    between atoms: C25_28  and  C27_30
REMARK   14  A    between atoms: C28_31  and  C29_32
REMARK   15  A    between atoms: C29_32  and  C30_33
REMARK   16  A    between atoms: C31_34  and  C32_35
REMARK   17  A    between atoms: C31_34  and  C33_36
REMARK                            x       y       z     vdW  Elec       q    Type
REMARK                         _______ _______ _______ _____ _____    ______ ____
ROOT
ATOM      1  C   UNL     1      51.842  20.392  15.776  0.00  0.00    +0.075 C 
ATOM      2  C   UNL     1      51.898  19.192  16.687  0.00  0.00    -0.046 A 
ATOM      3  C   UNL     1      51.622  17.955  16.185  0.00  0.00    -0.054 A 
ATOM      4  C   UNL     1      51.667  16.832  17.023  0.00  0.00    +0.047 A 
ATOM      5  C   UNL     1      51.375  15.545  16.528  0.00  0.00    -0.161 A 
ATOM      6  C   UNL     1      51.423  14.458  17.344  0.00  0.00    +0.062 A 
ATOM      7  C   UNL     1      51.778  14.603  18.699  0.00  0.00    -0.381 A 
ATOM      8  C   UNL     1      51.873  13.440  19.591  0.00  0.00    +0.406 C 
ATOM      9  C   UNL     1      51.264  12.129  19.139  0.00  0.00    -0.001 C 
ATOM     10  C   UNL     1      51.556  12.005  17.656  0.00  0.00    +0.390 C 
ATOM     11  O   UNL     1      52.149  11.051  17.213  0.00  0.00    -0.452 OA
ATOM     12  O   UNL     1      52.426  13.528  20.667  0.00  0.00    -0.457 OA
ATOM     13  C   UNL     1      52.065  15.868  19.226  0.00  0.00    +0.344 A 
ATOM     14  O   UNL     1      52.392  16.005  20.531  0.00  0.00    -0.615 OA
ATOM     15  C   UNL     1      51.080  13.114  16.752  0.00  0.00    -0.066 C 
ATOM     28  C   UNL     1      52.010  16.997  18.387  0.00  0.00    -0.177 A 
ATOM     29  C   UNL     1      52.288  18.286  18.881  0.00  0.00    +0.187 A 
ATOM     32  C   UNL     1      52.235  19.366  18.024  0.00  0.00    -0.181 A 
ENDROOT
BRANCH  29  30
ATOM     30  O   UNL     1      52.613  18.464  20.187  0.00  0.00    -0.472 OA
ATOM     31  H   UNL     1      51.859  18.681  20.753  0.00  0.00    +0.382 HD
ENDBRANCH  29  30
BRANCH  15  16
ATOM     16  C   UNL     1      51.752  12.978  15.385  0.00  0.00    +0.053 C 
BRANCH  16  17
ATOM     17  C   UNL     1      50.691  12.692  14.320  0.00  0.00    +0.050 C 
BRANCH  17  18
ATOM     18  C   UNL     1      51.303  12.829  12.950  0.00  0.00    -0.051 C 
ATOM     19  C   UNL     1      50.545  13.110  11.919  0.00  0.00    -0.142 C 
ATOM     20  C   UNL     1      51.163  13.289  10.557  0.00  0.00    +0.064 C 
ATOM     21  C   UNL     1      49.055  13.252  12.096  0.00  0.00    +0.073 C 
ENDBRANCH  17  18
ENDBRANCH  16  17
ENDBRANCH  15  16
BRANCH  15  22
ATOM     22  C   UNL     1      49.563  13.011  16.577  0.00  0.00    +0.063 C 
BRANCH  22  23
ATOM     23  C   UNL     1      48.868  13.867  17.637  0.00  0.00    +0.044 C 
BRANCH  23  24
ATOM     24  C   UNL     1      47.955  14.858  16.962  0.00  0.00    -0.047 C 
ATOM     25  C   UNL     1      47.781  16.049  17.479  0.00  0.00    -0.142 C 
ATOM     26  C   UNL     1      46.944  17.071  16.756  0.00  0.00    +0.069 C 
ATOM     27  C   UNL     1      48.419  16.396  18.800  0.00  0.00    +0.070 C 
ENDBRANCH  23  24
ENDBRANCH  22  23
ENDBRANCH  15  22
BRANCH  32  33
ATOM     33  C   UNL     1      52.538  20.747  18.545  0.00  0.00    +0.073 C 
BRANCH  33  34
ATOM     34  C   UNL     1      51.442  21.176  19.523  0.00  0.00    +0.052 C 
BRANCH  34  35
ATOM     35  C   UNL     1      50.097  21.041  18.859  0.00  0.00    -0.057 C 
ATOM     36  C   UNL     1      49.118  20.429  19.478  0.00  0.00    -0.140 C 
ATOM     37  C   UNL     1      47.732  20.435  18.888  0.00  0.00    +0.067 C 
ATOM     38  C   UNL     1      49.380  19.719  20.782  0.00  0.00    +0.072 C 
ENDBRANCH  34  35
ENDBRANCH  33  34
ENDBRANCH  32  33
TORSDOF 10
ENDMDL
MODEL 3
REMARK VINA RESULT:      -5.9      2.936      6.505
REMARK  Name = ZINC95485964
REMARK  17 active torsions:
REMARK  status: ('A' for Active; 'I' for Inactive)
REMARK    1  A    between atoms: C1_1  and  C2_2
REMARK    2  A    between atoms: C10_10  and  O1_18
REMARK    3  A    between atoms: C11_11  and  C12_12
REMARK    4  A    between atoms: C12_12  and  C13_13
REMARK    5  A    between atoms: C13_13  and  C14_14
REMARK    6  A    between atoms: C15_15  and  C16_16
REMARK    7  A    between atoms: C15_15  and  C17_17
REMARK    8  A    between atoms: C21_24  and  C22_25
REMARK    9  A    between atoms: C21_24  and  C28_31
REMARK   10  A    between atoms: C22_25  and  C23_26
REMARK   11  A    between atoms: C23_26  and  C24_27
REMARK   12  A    between atoms: C25_28  and  C26_29
REMARK   13  A    between atoms: C25_28  and  C27_30
REMARK   14  A    between atoms: C28_31  and  C29_32
REMARK   15  A    between atoms: C29_32  and  C30_33
REMARK   16  A    between atoms: C31_34  and  C32_35
REMARK   17  A    between atoms: C31_34  and  C33_36
REMARK                            x       y       z     vdW  Elec       q    Type
REMARK                         _______ _______ _______ _____ _____    ______ ____
ROOT
ATOM      1  C   UNL     1      48.956  13.895  15.972  0.00  0.00    +0.075 C 
ATOM      2  C   UNL     1      48.183  14.680  17.000  0.00  0.00    -0.046 A 
ATOM      3  C   UNL     1      48.653  15.891  17.412  0.00  0.00    -0.054 A 
ATOM      4  C   UNL     1      47.944  16.630  18.371  0.00  0.00    +0.047 A 
ATOM      5  C   UNL     1      48.418  17.879  18.819  0.00  0.00    -0.161 A 
ATOM      6  C   UNL     1      47.726  18.594  19.747  0.00  0.00    +0.062 A 
ATOM      7  C   UNL     1      46.515  18.098  20.266  0.00  0.00    -0.381 A 
ATOM      8  C   UNL     1      45.731  18.867  21.241  0.00  0.00    +0.406 C 
ATOM      9  C   UNL     1      46.390  20.038  21.938  0.00  0.00    -0.001 C 
ATOM     10  C   UNL     1      47.248  20.734  20.898  0.00  0.00    +0.390 C 
ATOM     11  O   UNL     1      47.093  21.904  20.642  0.00  0.00    -0.452 OA
ATOM     12  O   UNL     1      44.580  18.569  21.484  0.00  0.00    -0.457 OA
ATOM     13  C   UNL     1      46.021  16.855  19.850  0.00  0.00    +0.344 A 
ATOM     14  O   UNL     1      44.865  16.374  20.362  0.00  0.00    -0.615 OA
ATOM     15  C   UNL     1      48.301  19.914  20.195  0.00  0.00    -0.066 C 
ATOM     28  C   UNL     1      46.737  16.109  18.896  0.00  0.00    -0.177 A 
ATOM     29  C   UNL     1      46.274  14.854  18.455  0.00  0.00    +0.187 A 
ATOM     32  C   UNL     1      46.999  14.159  17.510  0.00  0.00    -0.181 A 
ENDROOT
BRANCH  29  30
ATOM     30  O   UNL     1      45.122  14.336  18.951  0.00  0.00    -0.472 OA
ATOM     31  H   UNL     1      45.239  13.501  19.426  0.00  0.00    +0.382 HD
ENDBRANCH  29  30
BRANCH  15  16
ATOM     16  C   UNL     1      48.810  20.684  18.975  0.00  0.00    +0.053 C 
BRANCH  16  17
ATOM     17  C   UNL     1      50.325  20.869  19.085  0.00  0.00    +0.050 C 
BRANCH  17  18
ATOM     18  C   UNL     1      50.931  20.886  17.705  0.00  0.00    -0.051 C 
ATOM     19  C   UNL     1      51.667  19.880  17.300  0.00  0.00    -0.142 C 
ATOM     20  C   UNL     1      52.237  19.878  15.906  0.00  0.00    +0.064 C 
ATOM     21  C   UNL     1      51.945  18.728  18.230  0.00  0.00    +0.073 C 
ENDBRANCH  17  18
ENDBRANCH  16  17
ENDBRANCH  15  16
BRANCH  15  22
ATOM     22  C   UNL     1      49.468  19.660  21.151  0.00  0.00    +0.063 C 
BRANCH  22  23
ATOM     23  C   UNL     1      49.339  18.259  21.752  0.00  0.00    +0.044 C 
BRANCH  23  24
ATOM     24  C   UNL     1      50.615  17.493  21.518  0.00  0.00    -0.047 C 
ATOM     25  C   UNL     1      50.582  16.191  21.376  0.00  0.00    -0.142 C 
ATOM     26  C   UNL     1      51.844  15.436  21.049  0.00  0.00    +0.069 C 
ATOM     27  C   UNL     1      49.281  15.449  21.541  0.00  0.00    +0.070 C 
ENDBRANCH  23  24
ENDBRANCH  22  23
ENDBRANCH  15  22
BRANCH  32  33
ATOM     33  C   UNL     1      46.506  12.818  17.029  0.00  0.00    +0.073 C 
BRANCH  33  34
ATOM     34  C   UNL     1      46.771  11.762  18.104  0.00  0.00    +0.052 C 
BRANCH  34  35
ATOM     35  C   UNL     1      48.040  11.020  17.777  0.00  0.00    -0.057 C 
ATOM     36  C   UNL     1      49.092  11.150  18.548  0.00  0.00    -0.140 C 
ATOM     37  C   UNL     1      50.306  10.288  18.317  0.00  0.00    +0.067 C 
ATOM     38  C   UNL     1      49.086  12.160  19.666  0.00  0.00    +0.072 C 
ENDBRANCH  34  35
ENDBRANCH  33  34
ENDBRANCH  32  33
TORSDOF 10
ENDMDL
MODEL 4
REMARK VINA RESULT:      -5.7      2.896      6.355
REMARK  Name = ZINC95485964
REMARK  17 active torsions:
REMARK  status: ('A' for Active; 'I' for Inactive)
REMARK    1  A    between atoms: C1_1  and  C2_2
REMARK    2  A    between atoms: C10_10  and  O1_18
REMARK    3  A    between atoms: C11_11  and  C12_12
REMARK    4  A    between atoms: C12_12  and  C13_13
REMARK    5  A    between atoms: C13_13  and  C14_14
REMARK    6  A    between atoms: C15_15  and  C16_16
REMARK    7  A    between atoms: C15_15  and  C17_17
REMARK    8  A    between atoms: C21_24  and  C22_25
REMARK    9  A    between atoms: C21_24  and  C28_31
REMARK   10  A    between atoms: C22_25  and  C23_26
REMARK   11  A    between atoms: C23_26  and  C24_27
REMARK   12  A    between atoms: C25_28  and  C26_29
REMARK   13  A    between atoms: C25_28  and  C27_30
REMARK   14  A    between atoms: C28_31  and  C29_32
REMARK   15  A    between atoms: C29_32  and  C30_33
REMARK   16  A    between atoms: C31_34  and  C32_35
REMARK   17  A    between atoms: C31_34  and  C33_36
REMARK                            x       y       z     vdW  Elec       q    Type
REMARK                         _______ _______ _______ _____ _____    ______ ____
ROOT
ATOM      1  C   UNL     1      51.476  19.634  15.853  0.00  0.00    +0.075 C 
ATOM      2  C   UNL     1      51.155  18.555  16.855  0.00  0.00    -0.046 A 
ATOM      3  C   UNL     1      50.214  17.616  16.551  0.00  0.00    -0.054 A 
ATOM      4  C   UNL     1      49.903  16.609  17.476  0.00  0.00    +0.047 A 
ATOM      5  C   UNL     1      48.926  15.636  17.187  0.00  0.00    -0.161 A 
ATOM      6  C   UNL     1      48.630  14.658  18.085  0.00  0.00    +0.062 A 
ATOM      7  C   UNL     1      49.308  14.599  19.319  0.00  0.00    -0.381 A 
ATOM      8  C   UNL     1      49.032  13.533  20.290  0.00  0.00    +0.406 C 
ATOM      9  C   UNL     1      47.785  12.694  20.110  0.00  0.00    -0.001 C 
ATOM     10  C   UNL     1      47.637  12.454  18.619  0.00  0.00    +0.390 C 
ATOM     11  O   UNL     1      47.582  11.334  18.169  0.00  0.00    -0.452 OA
ATOM     12  O   UNL     1      49.787  13.330  21.218  0.00  0.00    -0.457 OA
ATOM     13  C   UNL     1      50.277  15.557  19.642  0.00  0.00    +0.344 A 
ATOM     14  O   UNL     1      50.916  15.506  20.833  0.00  0.00    -0.615 OA
ATOM     15  C   UNL     1      47.560  13.661  17.719  0.00  0.00    -0.066 C 
ATOM     28  C   UNL     1      50.582  16.574  18.718  0.00  0.00    -0.177 A 
ATOM     29  C   UNL     1      51.548  17.556  19.008  0.00  0.00    +0.187 A 
ATOM     32  C   UNL     1      51.826  18.530  18.071  0.00  0.00    -0.181 A 
ENDROOT
BRANCH  29  30
ATOM     30  O   UNL     1      52.204  17.542  20.196  0.00  0.00    -0.472 OA
ATOM     31  H   UNL     1      52.986  16.973  20.207  0.00  0.00    +0.382 HD
ENDBRANCH  29  30
BRANCH  15  16
ATOM     16  C   UNL     1      47.755  13.222  16.266  0.00  0.00    +0.053 C 
BRANCH  16  17
ATOM     17  C   UNL     1      49.019  12.366  16.157  0.00  0.00    +0.050 C 
BRANCH  17  18
ATOM     18  C   UNL     1      49.879  12.882  15.032  0.00  0.00    -0.051 C 
ATOM     19  C   UNL     1      51.124  13.221  15.262  0.00  0.00    -0.142 C 
ATOM     20  C   UNL     1      51.997  13.696  14.129  0.00  0.00    +0.064 C 
ATOM     21  C   UNL     1      51.681  13.138  16.659  0.00  0.00    +0.073 C 
ENDBRANCH  17  18
ENDBRANCH  16  17
ENDBRANCH  15  16
BRANCH  15  22
ATOM     22  C   UNL     1      46.185  14.317  17.864  0.00  0.00    +0.063 C 
BRANCH  22  23
ATOM     23  C   UNL     1      46.239  15.373  18.970  0.00  0.00    +0.044 C 
BRANCH  23  24
ATOM     24  C   UNL     1      45.833  16.710  18.406  0.00  0.00    -0.047 C 
ATOM     25  C   UNL     1      46.388  17.808  18.857  0.00  0.00    -0.142 C 
ATOM     26  C   UNL     1      46.053  19.136  18.229  0.00  0.00    +0.069 C 
ATOM     27  C   UNL     1      47.362  17.742  20.005  0.00  0.00    +0.070 C 
ENDBRANCH  23  24
ENDBRANCH  22  23
ENDBRANCH  15  22
BRANCH  32  33
ATOM     33  C   UNL     1      52.864  19.581  18.373  0.00  0.00    +0.073 C 
BRANCH  33  34
ATOM     34  C   UNL     1      52.172  20.919  18.643  0.00  0.00    +0.052 C 
BRANCH  34  35
ATOM     35  C   UNL     1      51.562  20.899  20.020  0.00  0.00    -0.057 C 
ATOM     36  C   UNL     1      50.263  20.809  20.160  0.00  0.00    -0.140 C 
ATOM     37  C   UNL     1      49.664  20.625  21.531  0.00  0.00    +0.067 C 
ATOM     38  C   UNL     1      49.368  20.887  18.950  0.00  0.00    +0.072 C 
ENDBRANCH  34  35
ENDBRANCH  33  34
ENDBRANCH  32  33
TORSDOF 10
ENDMDL
MODEL 5
REMARK VINA RESULT:      -5.7      1.412      1.774
REMARK  Name = ZINC95485964
REMARK  17 active torsions:
REMARK  status: ('A' for Active; 'I' for Inactive)
REMARK    1  A    between atoms: C1_1  and  C2_2
REMARK    2  A    between atoms: C10_10  and  O1_18
REMARK    3  A    between atoms: C11_11  and  C12_12
REMARK    4  A    between atoms: C12_12  and  C13_13
REMARK    5  A    between atoms: C13_13  and  C14_14
REMARK    6  A    between atoms: C15_15  and  C16_16
REMARK    7  A    between atoms: C15_15  and  C17_17
REMARK    8  A    between atoms: C21_24  and  C22_25
REMARK    9  A    between atoms: C21_24  and  C28_31
REMARK   10  A    between atoms: C22_25  and  C23_26
REMARK   11  A    between atoms: C23_26  and  C24_27
REMARK   12  A    between atoms: C25_28  and  C26_29
REMARK   13  A    between atoms: C25_28  and  C27_30
REMARK   14  A    between atoms: C28_31  and  C29_32
REMARK   15  A    between atoms: C29_32  and  C30_33
REMARK   16  A    between atoms: C31_34  and  C32_35
REMARK   17  A    between atoms: C31_34  and  C33_36
REMARK                            x       y       z     vdW  Elec       q    Type
REMARK                         _______ _______ _______ _____ _____    ______ ____
ROOT
ATOM      1  C   UNL     1      45.958  21.557  18.769  0.00  0.00    +0.075 C 
ATOM      2  C   UNL     1      46.056  20.097  19.126  0.00  0.00    -0.046 A 
ATOM      3  C   UNL     1      47.222  19.428  18.899  0.00  0.00    -0.054 A 
ATOM      4  C   UNL     1      47.325  18.067  19.224  0.00  0.00    +0.047 A 
ATOM      5  C   UNL     1      48.517  17.353  18.987  0.00  0.00    -0.161 A 
ATOM      6  C   UNL     1      48.614  16.035  19.307  0.00  0.00    +0.062 A 
ATOM      7  C   UNL     1      47.522  15.365  19.892  0.00  0.00    -0.381 A 
ATOM      8  C   UNL     1      47.614  13.951  20.279  0.00  0.00    +0.406 C 
ATOM      9  C   UNL     1      48.766  13.127  19.745  0.00  0.00    -0.001 C 
ATOM     10  C   UNL     1      49.988  14.026  19.765  0.00  0.00    +0.390 C 
ATOM     11  O   UNL     1      50.987  13.711  20.366  0.00  0.00    -0.452 OA
ATOM     12  O   UNL     1      46.784  13.454  21.011  0.00  0.00    -0.457 OA
ATOM     13  C   UNL     1      46.320  16.041  20.131  0.00  0.00    +0.344 A 
ATOM     14  O   UNL     1      45.269  15.391  20.680  0.00  0.00    -0.615 OA
ATOM     15  C   UNL     1      49.912  15.329  19.008  0.00  0.00    -0.066 C 
ATOM     28  C   UNL     1      46.212  17.404  19.796  0.00  0.00    -0.177 A 
ATOM     29  C   UNL     1      45.019  18.117  20.019  0.00  0.00    +0.187 A 
ATOM     32  C   UNL     1      44.958  19.455  19.687  0.00  0.00    -0.181 A 
ENDROOT
BRANCH  29  30
ATOM     30  O   UNL     1      43.941  17.497  20.560  0.00  0.00    -0.472 OA
ATOM     31  H   UNL     1      44.042  16.539  20.652  0.00  0.00    +0.382 HD
ENDBRANCH  29  30
BRANCH  15  16
ATOM     16  C   UNL     1      51.082  16.224  19.424  0.00  0.00    +0.053 C 
BRANCH  16  17
ATOM     17  C   UNL     1      51.915  16.578  18.191  0.00  0.00    +0.050 C 
BRANCH  17  18
ATOM     18  C   UNL     1      52.342  18.022  18.271  0.00  0.00    -0.051 C 
ATOM     19  C   UNL     1      51.859  18.895  17.422  0.00  0.00    -0.142 C 
ATOM     20  C   UNL     1      52.252  20.346  17.528  0.00  0.00    +0.064 C 
ATOM     21  C   UNL     1      50.912  18.449  16.338  0.00  0.00    +0.073 C 
ENDBRANCH  17  18
ENDBRANCH  16  17
ENDBRANCH  15  16
BRANCH  15  22
ATOM     22  C   UNL     1      50.004  15.049  17.507  0.00  0.00    +0.063 C 
BRANCH  22  23
ATOM     23  C   UNL     1      49.921  13.542  17.263  0.00  0.00    +0.044 C 
BRANCH  23  24
ATOM     24  C   UNL     1      49.607  13.284  15.812  0.00  0.00    -0.047 C 
ATOM     25  C   UNL     1      48.385  12.983  15.448  0.00  0.00    -0.142 C 
ATOM     26  C   UNL     1      48.052  12.818  13.988  0.00  0.00    +0.069 C 
ATOM     27  C   UNL     1      47.313  12.801  16.492  0.00  0.00    +0.070 C 
ENDBRANCH  23  24
ENDBRANCH  22  23
ENDBRANCH  15  22
BRANCH  32  33
ATOM     33  C   UNL     1      43.685  20.226  19.928  0.00  0.00    +0.073 C 
BRANCH  33  34
ATOM     34  C   UNL     1      42.755  20.065  18.724  0.00  0.00    +0.052 C 
BRANCH  34  35
ATOM     35  C   UNL     1      41.601  21.025  18.850  0.00  0.00    -0.057 C 
ATOM     36  C   UNL     1      40.417  20.689  18.402  0.00  0.00    -0.140 C 
ATOM     37  C   UNL     1      39.229  21.575  18.672  0.00  0.00    +0.067 C 
ATOM     38  C   UNL     1      40.243  19.413  17.618  0.00  0.00    +0.072 C 
ENDBRANCH  34  35
ENDBRANCH  33  34
ENDBRANCH  32  33
TORSDOF 10
ENDMDL
MODEL 6
REMARK VINA RESULT:      -5.6      3.358      6.448
REMARK  Name = ZINC95485964
REMARK  17 active torsions:
REMARK  status: ('A' for Active; 'I' for Inactive)
REMARK    1  A    between atoms: C1_1  and  C2_2
REMARK    2  A    between atoms: C10_10  and  O1_18
REMARK    3  A    between atoms: C11_11  and  C12_12
REMARK    4  A    between atoms: C12_12  and  C13_13
REMARK    5  A    between atoms: C13_13  and  C14_14
REMARK    6  A    between atoms: C15_15  and  C16_16
REMARK    7  A    between atoms: C15_15  and  C17_17
REMARK    8  A    between atoms: C21_24  and  C22_25
REMARK    9  A    between atoms: C21_24  and  C28_31
REMARK   10  A    between atoms: C22_25  and  C23_26
REMARK   11  A    between atoms: C23_26  and  C24_27
REMARK   12  A    between atoms: C25_28  and  C26_29
REMARK   13  A    between atoms: C25_28  and  C27_30
REMARK   14  A    between atoms: C28_31  and  C29_32
REMARK   15  A    between atoms: C29_32  and  C30_33
REMARK   16  A    between atoms: C31_34  and  C32_35
REMARK   17  A    between atoms: C31_34  and  C33_36
REMARK                            x       y       z     vdW  Elec       q    Type
REMARK                         _______ _______ _______ _____ _____    ______ ____
ROOT
ATOM      1  C   UNL     1      50.987  13.847  17.160  0.00  0.00    +0.075 C 
ATOM      2  C   UNL     1      50.135  14.581  18.163  0.00  0.00    -0.046 A 
ATOM      3  C   UNL     1      50.280  15.928  18.308  0.00  0.00    -0.054 A 
ATOM      4  C   UNL     1      49.496  16.622  19.242  0.00  0.00    +0.047 A 
ATOM      5  C   UNL     1      49.638  18.013  19.417  0.00  0.00    -0.161 A 
ATOM      6  C   UNL     1      48.873  18.683  20.320  0.00  0.00    +0.062 A 
ATOM      7  C   UNL     1      47.916  17.993  21.089  0.00  0.00    -0.381 A 
ATOM      8  C   UNL     1      47.053  18.699  22.045  0.00  0.00    +0.406 C 
ATOM      9  C   UNL     1      47.420  20.112  22.446  0.00  0.00    -0.001 C 
ATOM     10  C   UNL     1      47.928  20.799  21.192  0.00  0.00    +0.390 C 
ATOM     11  O   UNL     1      47.419  21.817  20.788  0.00  0.00    -0.452 OA
ATOM     12  O   UNL     1      46.067  18.161  22.504  0.00  0.00    -0.457 OA
ATOM     13  C   UNL     1      47.756  16.609  20.948  0.00  0.00    +0.344 A 
ATOM     14  O   UNL     1      46.846  15.947  21.699  0.00  0.00    -0.615 OA
ATOM     15  C   UNL     1      49.090  20.167  20.468  0.00  0.00    -0.066 C 
ATOM     28  C   UNL     1      48.550  15.910  20.019  0.00  0.00    -0.177 A 
ATOM     29  C   UNL     1      48.421  14.519  19.851  0.00  0.00    +0.187 A 
ATOM     32  C   UNL     1      49.210  13.873  18.922  0.00  0.00    -0.181 A 
ENDROOT
BRANCH  29  30
ATOM     30  O   UNL     1      47.525  13.819  20.591  0.00  0.00    -0.472 OA
ATOM     31  H   UNL     1      47.888  13.019  20.996  0.00  0.00    +0.382 HD
ENDBRANCH  29  30
BRANCH  15  16
ATOM     16  C   UNL     1      49.227  20.799  19.082  0.00  0.00    +0.053 C 
BRANCH  16  17
ATOM     17  C   UNL     1      50.688  21.182  18.838  0.00  0.00    +0.050 C 
BRANCH  17  18
ATOM     18  C   UNL     1      51.052  20.889  17.404  0.00  0.00    -0.051 C 
ATOM     19  C   UNL     1      51.965  19.989  17.132  0.00  0.00    -0.142 C 
ATOM     20  C   UNL     1      52.298  19.665  15.699  0.00  0.00    +0.064 C 
ATOM     21  C   UNL     1      52.682  19.281  18.251  0.00  0.00    +0.073 C 
ENDBRANCH  17  18
ENDBRANCH  16  17
ENDBRANCH  15  16
BRANCH  15  22
ATOM     22  C   UNL     1      50.376  20.414  21.261  0.00  0.00    +0.063 C 
BRANCH  22  23
ATOM     23  C   UNL     1      50.651  19.216  22.171  0.00  0.00    +0.044 C 
BRANCH  23  24
ATOM     24  C   UNL     1      52.060  18.728  21.947  0.00  0.00    -0.047 C 
ATOM     25  C   UNL     1      52.335  17.452  22.045  0.00  0.00    -0.142 C 
ATOM     26  C   UNL     1      53.722  16.953  21.729  0.00  0.00    +0.069 C 
ATOM     27  C   UNL     1      51.265  16.481  22.473  0.00  0.00    +0.070 C 
ENDBRANCH  23  24
ENDBRANCH  22  23
ENDBRANCH  15  22
BRANCH  32  33
ATOM     33  C   UNL     1      49.073  12.384  18.732  0.00  0.00    +0.073 C 
BRANCH  33  34
ATOM     34  C   UNL     1      47.745  12.079  18.035  0.00  0.00    +0.052 C 
BRANCH  34  35
ATOM     35  C   UNL     1      47.990  11.865  16.564  0.00  0.00    -0.057 C 
ATOM     36  C   UNL     1      47.716  12.819  15.709  0.00  0.00    -0.140 C 
ATOM     37  C   UNL     1      48.109  12.670  14.262  0.00  0.00    +0.067 C 
ATOM     38  C   UNL     1      47.009  14.067  16.173  0.00  0.00    +0.072 C 
ENDBRANCH  34  35
ENDBRANCH  33  34
ENDBRANCH  32  33
TORSDOF 10
ENDMDL
MODEL 7
REMARK VINA RESULT:      -5.6      2.431      7.784
REMARK  Name = ZINC95485964
REMARK  17 active torsions:
REMARK  status: ('A' for Active; 'I' for Inactive)
REMARK    1  A    between atoms: C1_1  and  C2_2
REMARK    2  A    between atoms: C10_10  and  O1_18
REMARK    3  A    between atoms: C11_11  and  C12_12
REMARK    4  A    between atoms: C12_12  and  C13_13
REMARK    5  A    between atoms: C13_13  and  C14_14
REMARK    6  A    between atoms: C15_15  and  C16_16
REMARK    7  A    between atoms: C15_15  and  C17_17
REMARK    8  A    between atoms: C21_24  and  C22_25
REMARK    9  A    between atoms: C21_24  and  C28_31
REMARK   10  A    between atoms: C22_25  and  C23_26
REMARK   11  A    between atoms: C23_26  and  C24_27
REMARK   12  A    between atoms: C25_28  and  C26_29
REMARK   13  A    between atoms: C25_28  and  C27_30
REMARK   14  A    between atoms: C28_31  and  C29_32
REMARK   15  A    between atoms: C29_32  and  C30_33
REMARK   16  A    between atoms: C31_34  and  C32_35
REMARK   17  A    between atoms: C31_34  and  C33_36
REMARK                            x       y       z     vdW  Elec       q    Type
REMARK                         _______ _______ _______ _____ _____    ______ ____
ROOT
ATOM      1  C   UNL     1      47.790  13.813  15.884  0.00  0.00    +0.075 C 
ATOM      2  C   UNL     1      48.534  14.564  16.958  0.00  0.00    -0.046 A 
ATOM      3  C   UNL     1      48.103  15.803  17.331  0.00  0.00    -0.054 A 
ATOM      4  C   UNL     1      48.789  16.513  18.327  0.00  0.00    +0.047 A 
ATOM      5  C   UNL     1      48.369  17.799  18.720  0.00  0.00    -0.161 A 
ATOM      6  C   UNL     1      49.035  18.484  19.689  0.00  0.00    +0.062 A 
ATOM      7  C   UNL     1      50.153  17.908  20.323  0.00  0.00    -0.381 A 
ATOM      8  C   UNL     1      50.867  18.612  21.396  0.00  0.00    +0.406 C 
ATOM      9  C   UNL     1      50.607  20.091  21.591  0.00  0.00    -0.001 C 
ATOM     10  C   UNL     1      49.121  20.302  21.368  0.00  0.00    +0.390 C 
ATOM     11  O   UNL     1      48.427  20.805  22.219  0.00  0.00    -0.452 OA
ATOM     12  O   UNL     1      51.649  18.021  22.111  0.00  0.00    -0.457 OA
ATOM     13  C   UNL     1      50.604  16.636  19.949  0.00  0.00    +0.344 A 
ATOM     14  O   UNL     1      51.687  16.093  20.550  0.00  0.00    -0.615 OA
ATOM     15  C   UNL     1      48.541  19.863  20.047  0.00  0.00    -0.066 C 
ATOM     28  C   UNL     1      49.922  15.927  18.942  0.00  0.00    -0.177 A 
ATOM     29  C   UNL     1      50.347  14.648  18.537  0.00  0.00    +0.187 A 
ATOM     32  C   UNL     1      49.645  13.981  17.555  0.00  0.00    -0.181 A 
ENDROOT
BRANCH  29  30
ATOM     30  O   UNL     1      51.434  14.073  19.111  0.00  0.00    -0.472 OA
ATOM     31  H   UNL     1      52.243  14.151  18.587  0.00  0.00    +0.382 HD
ENDBRANCH  29  30
BRANCH  15  16
ATOM     16  C   UNL     1      47.014  19.843  20.146  0.00  0.00    +0.053 C 
BRANCH  16  17
ATOM     17  C   UNL     1      46.422  20.761  19.075  0.00  0.00    +0.050 C 
BRANCH  17  18
ATOM     18  C   UNL     1      44.968  20.421  18.869  0.00  0.00    -0.051 C 
ATOM     19  C   UNL     1      44.038  21.180  19.393  0.00  0.00    -0.142 C 
ATOM     20  C   UNL     1      42.584  20.864  19.153  0.00  0.00    +0.064 C 
ATOM     21  C   UNL     1      44.421  22.367  20.238  0.00  0.00    +0.073 C 
ENDBRANCH  17  18
ENDBRANCH  16  17
ENDBRANCH  15  16
BRANCH  15  22
ATOM     22  C   UNL     1      48.960  20.850  18.955  0.00  0.00    +0.063 C 
BRANCH  22  23
ATOM     23  C   UNL     1      50.487  20.914  18.885  0.00  0.00    +0.044 C 
BRANCH  23  24
ATOM     24  C   UNL     1      50.927  20.834  17.446  0.00  0.00    -0.047 C 
ATOM     25  C   UNL     1      51.883  20.008  17.097  0.00  0.00    -0.142 C 
ATOM     26  C   UNL     1      52.258  19.859  15.645  0.00  0.00    +0.069 C 
ATOM     27  C   UNL     1      52.607  19.208  18.148  0.00  0.00    +0.070 C 
ENDBRANCH  23  24
ENDBRANCH  22  23
ENDBRANCH  15  22
BRANCH  32  33
ATOM     33  C   UNL     1      50.091  12.608  17.120  0.00  0.00    +0.073 C 
BRANCH  33  34
ATOM     34  C   UNL     1      51.438  12.712  16.403  0.00  0.00    +0.052 C 
BRANCH  34  35
ATOM     35  C   UNL     1      51.232  13.306  15.034  0.00  0.00    -0.057 C 
ATOM     36  C   UNL     1      51.127  12.523  13.989  0.00  0.00    -0.140 C 
ATOM     37  C   UNL     1      50.760  13.103  12.647  0.00  0.00    +0.067 C 
ATOM     38  C   UNL     1      51.371  11.042  14.130  0.00  0.00    +0.072 C 
ENDBRANCH  34  35
ENDBRANCH  33  34
ENDBRANCH  32  33
TORSDOF 10
ENDMDL
MODEL 8
REMARK VINA RESULT:      -5.6      2.814      8.693
REMARK  Name = ZINC95485964
REMARK  17 active torsions:
REMARK  status: ('A' for Active; 'I' for Inactive)
REMARK    1  A    between atoms: C1_1  and  C2_2
REMARK    2  A    between atoms: C10_10  and  O1_18
REMARK    3  A    between atoms: C11_11  and  C12_12
REMARK    4  A    between atoms: C12_12  and  C13_13
REMARK    5  A    between atoms: C13_13  and  C14_14
REMARK    6  A    between atoms: C15_15  and  C16_16
REMARK    7  A    between atoms: C15_15  and  C17_17
REMARK    8  A    between atoms: C21_24  and  C22_25
REMARK    9  A    between atoms: C21_24  and  C28_31
REMARK   10  A    between atoms: C22_25  and  C23_26
REMARK   11  A    between atoms: C23_26  and  C24_27
REMARK   12  A    between atoms: C25_28  and  C26_29
REMARK   13  A    between atoms: C25_28  and  C27_30
REMARK   14  A    between atoms: C28_31  and  C29_32
REMARK   15  A    between atoms: C29_32  and  C30_33
REMARK   16  A    between atoms: C31_34  and  C32_35
REMARK   17  A    between atoms: C31_34  and  C33_36
REMARK                            x       y       z     vdW  Elec       q    Type
REMARK                         _______ _______ _______ _____ _____    ______ ____
ROOT
ATOM      1  C   UNL     1      46.915  11.735  15.514  0.00  0.00    +0.075 C 
ATOM      2  C   UNL     1      47.789  12.863  16.001  0.00  0.00    -0.046 A 
ATOM      3  C   UNL     1      47.251  13.835  16.791  0.00  0.00    -0.054 A 
ATOM      4  C   UNL     1      48.052  14.892  17.248  0.00  0.00    +0.047 A 
ATOM      5  C   UNL     1      47.515  15.913  18.055  0.00  0.00    -0.161 A 
ATOM      6  C   UNL     1      48.296  16.934  18.499  0.00  0.00    +0.062 A 
ATOM      7  C   UNL     1      49.663  16.978  18.164  0.00  0.00    -0.381 A 
ATOM      8  C   UNL     1      50.536  18.050  18.660  0.00  0.00    +0.406 C 
ATOM      9  C   UNL     1      49.897  19.288  19.254  0.00  0.00    -0.001 C 
ATOM     10  C   UNL     1      48.702  18.813  20.059  0.00  0.00    +0.390 C 
ATOM     11  O   UNL     1      48.596  19.075  21.234  0.00  0.00    -0.452 OA
ATOM     12  O   UNL     1      51.743  17.947  18.595  0.00  0.00    -0.457 OA
ATOM     13  C   UNL     1      50.227  15.985  17.354  0.00  0.00    +0.344 A 
ATOM     14  O   UNL     1      51.538  16.038  17.023  0.00  0.00    -0.615 OA
ATOM     15  C   UNL     1      47.650  18.003  19.344  0.00  0.00    -0.066 C 
ATOM     28  C   UNL     1      49.421  14.930  16.887  0.00  0.00    -0.177 A 
ATOM     29  C   UNL     1      49.952  13.915  16.069  0.00  0.00    +0.187 A 
ATOM     32  C   UNL     1      49.131  12.892  15.641  0.00  0.00    -0.181 A 
ENDROOT
BRANCH  29  30
ATOM     30  O   UNL     1      51.260  13.938  15.709  0.00  0.00    -0.472 OA
ATOM     31  H   UNL     1      51.448  13.475  14.880  0.00  0.00    +0.382 HD
ENDBRANCH  29  30
BRANCH  15  16
ATOM     16  C   UNL     1      46.729  17.346  20.373  0.00  0.00    +0.053 C 
BRANCH  16  17
ATOM     17  C   UNL     1      45.274  17.687  20.047  0.00  0.00    +0.050 C 
BRANCH  17  18
ATOM     18  C   UNL     1      44.554  18.081  21.311  0.00  0.00    -0.051 C 
ATOM     19  C   UNL     1      43.408  18.713  21.242  0.00  0.00    -0.142 C 
ATOM     20  C   UNL     1      42.668  19.068  22.505  0.00  0.00    +0.064 C 
ATOM     21  C   UNL     1      42.832  19.085  19.901  0.00  0.00    +0.073 C 
ENDBRANCH  17  18
ENDBRANCH  16  17
ENDBRANCH  15  16
BRANCH  15  22
ATOM     22  C   UNL     1      46.822  18.926  18.447  0.00  0.00    +0.063 C 
BRANCH  22  23
ATOM     23  C   UNL     1      47.106  20.384  18.815  0.00  0.00    +0.044 C 
BRANCH  23  24
ATOM     24  C   UNL     1      45.816  21.163  18.809  0.00  0.00    -0.047 C 
ATOM     25  C   UNL     1      45.384  21.727  19.910  0.00  0.00    -0.142 C 
ATOM     26  C   UNL     1      44.146  22.585  19.883  0.00  0.00    +0.069 C 
ATOM     27  C   UNL     1      46.127  21.516  21.204  0.00  0.00    +0.070 C 
ENDBRANCH  23  24
ENDBRANCH  22  23
ENDBRANCH  15  22
BRANCH  32  33
ATOM     33  C   UNL     1      49.694  11.798  14.770  0.00  0.00    +0.073 C 
BRANCH  33  34
ATOM     34  C   UNL     1      50.050  10.588  15.636  0.00  0.00    +0.052 C 
BRANCH  34  35
ATOM     35  C   UNL     1      51.541  10.536  15.837  0.00  0.00    -0.057 C 
ATOM     36  C   UNL     1      52.048  10.695  17.035  0.00  0.00    -0.140 C 
ATOM     37  C   UNL     1      53.522  10.483  17.264  0.00  0.00    +0.067 C 
ATOM     38  C   UNL     1      51.155  11.090  18.183  0.00  0.00    +0.072 C 
ENDBRANCH  34  35
ENDBRANCH  33  34
ENDBRANCH  32  33
TORSDOF 10
ENDMDL
MODEL 9
REMARK VINA RESULT:      -5.3      3.941      6.843
REMARK  Name = ZINC95485964
REMARK  17 active torsions:
REMARK  status: ('A' for Active; 'I' for Inactive)
REMARK    1  A    between atoms: C1_1  and  C2_2
REMARK    2  A    between atoms: C10_10  and  O1_18
REMARK    3  A    between atoms: C11_11  and  C12_12
REMARK    4  A    between atoms: C12_12  and  C13_13
REMARK    5  A    between atoms: C13_13  and  C14_14
REMARK    6  A    between atoms: C15_15  and  C16_16
REMARK    7  A    between atoms: C15_15  and  C17_17
REMARK    8  A    between atoms: C21_24  and  C22_25
REMARK    9  A    between atoms: C21_24  and  C28_31
REMARK   10  A    between atoms: C22_25  and  C23_26
REMARK   11  A    between atoms: C23_26  and  C24_27
REMARK   12  A    between atoms: C25_28  and  C26_29
REMARK   13  A    between atoms: C25_28  and  C27_30
REMARK   14  A    between atoms: C28_31  and  C29_32
REMARK   15  A    between atoms: C29_32  and  C30_33
REMARK   16  A    between atoms: C31_34  and  C32_35
REMARK   17  A    between atoms: C31_34  and  C33_36
REMARK                            x       y       z     vdW  Elec       q    Type
REMARK                         _______ _______ _______ _____ _____    ______ ____
ROOT
ATOM      1  C   UNL     1      48.135  17.959  17.011  0.00  0.00    +0.075 C 
ATOM      2  C   UNL     1      49.038  16.992  17.733  0.00  0.00    -0.046 A 
ATOM      3  C   UNL     1      49.401  15.830  17.121  0.00  0.00    -0.054 A 
ATOM      4  C   UNL     1      50.239  14.920  17.784  0.00  0.00    +0.047 A 
ATOM      5  C   UNL     1      50.617  13.707  17.175  0.00  0.00    -0.161 A 
ATOM      6  C   UNL     1      51.432  12.829  17.820  0.00  0.00    +0.062 A 
ATOM      7  C   UNL     1      51.919  13.127  19.107  0.00  0.00    -0.381 A 
ATOM      8  C   UNL     1      52.829  12.212  19.809  0.00  0.00    +0.406 C 
ATOM      9  C   UNL     1      52.976  10.798  19.290  0.00  0.00    -0.001 C 
ATOM     10  C   UNL     1      52.971  10.889  17.776  0.00  0.00    +0.390 C 
ATOM     11  O   UNL     1      53.888  10.455  17.121  0.00  0.00    -0.452 OA
ATOM     12  O   UNL     1      53.448  12.582  20.784  0.00  0.00    -0.457 OA
ATOM     13  C   UNL     1      51.554  14.319  19.745  0.00  0.00    +0.344 A 
ATOM     14  O   UNL     1      52.012  14.595  20.988  0.00  0.00    -0.615 OA
ATOM     15  C   UNL     1      51.782  11.542  17.116  0.00  0.00    -0.066 C 
ATOM     28  C   UNL     1      50.706  15.227  19.085  0.00  0.00    -0.177 A 
ATOM     29  C   UNL     1      50.314  16.434  19.695  0.00  0.00    +0.187 A 
ATOM     32  C   UNL     1      49.490  17.303  19.010  0.00  0.00    -0.181 A 
ENDROOT
BRANCH  29  30
ATOM     30  O   UNL     1      50.747  16.743  20.943  0.00  0.00    -0.472 OA
ATOM     31  H   UNL     1      50.100  16.564  21.640  0.00  0.00    +0.382 HD
ENDBRANCH  29  30
BRANCH  15  16
ATOM     16  C   UNL     1      52.114  11.839  15.653  0.00  0.00    +0.053 C 
BRANCH  16  17
ATOM     17  C   UNL     1      51.091  11.151  14.748  0.00  0.00    +0.050 C 
BRANCH  17  18
ATOM     18  C   UNL     1      50.987  11.902  13.445  0.00  0.00    -0.051 C 
ATOM     19  C   UNL     1      49.918  12.614  13.184  0.00  0.00    -0.142 C 
ATOM     20  C   UNL     1      49.832  13.399  11.901  0.00  0.00    +0.064 C 
ATOM     21  C   UNL     1      48.775  12.645  14.164  0.00  0.00    +0.073 C 
ENDBRANCH  17  18
ENDBRANCH  16  17
ENDBRANCH  15  16
BRANCH  15  22
ATOM     22  C   UNL     1      50.584  10.591  17.175  0.00  0.00    +0.063 C 
BRANCH  22  23
ATOM     23  C   UNL     1      49.603  11.073  18.245  0.00  0.00    +0.044 C 
BRANCH  23  24
ATOM     24  C   UNL     1      48.219  11.158  17.655  0.00  0.00    -0.047 C 
ATOM     25  C   UNL     1      47.362  12.035  18.116  0.00  0.00    -0.142 C 
ATOM     26  C   UNL     1      46.012  12.185  17.464  0.00  0.00    +0.069 C 
ATOM     27  C   UNL     1      47.727  12.894  19.299  0.00  0.00    +0.070 C 
ENDBRANCH  23  24
ENDBRANCH  22  23
ENDBRANCH  15  22
BRANCH  32  33
ATOM     33  C   UNL     1      49.072  18.600  19.655  0.00  0.00    +0.073 C 
BRANCH  33  34
ATOM     34  C   UNL     1      50.289  19.517  19.791  0.00  0.00    +0.052 C 
BRANCH  34  35
ATOM     35  C   UNL     1      50.381  20.411  18.582  0.00  0.00    -0.057 C 
ATOM     36  C   UNL     1      51.404  20.312  17.770  0.00  0.00    -0.140 C 
ATOM     37  C   UNL     1      51.419  21.087  16.478  0.00  0.00    +0.067 C 
ATOM     38  C   UNL     1      52.566  19.420  18.128  0.00  0.00    +0.072 C 
ENDBRANCH  34  35
ENDBRANCH  33  34
ENDBRANCH  32  33
TORSDOF 10
ENDMDL
