MODEL 1
REMARK VINA RESULT:      -5.9      0.000      0.000
REMARK  Name = ZINC00119988
REMARK  6 active torsions:
REMARK  status: ('A' for Active; 'I' for Inactive)
REMARK    1  A    between atoms: C3_3  and  O6_23
REMARK    2  A    between atoms: C4_4  and  O5_22
REMARK    3  A    between atoms: C6_6  and  C7_7
REMARK    4  A    between atoms: C8_9  and  O4_21
REMARK    5  A    between atoms: C11_13  and  O3_20
REMARK    6  A    between atoms: C13_15  and  O2_19
REMARK                            x       y       z     vdW  Elec       q    Type
REMARK                         _______ _______ _______ _____ _____    ______ ____
ROOT
ATOM     11  C   UNL     1      44.132  19.444  20.207  0.00  0.00    +0.243 C 
ATOM     12  C   UNL     1      45.271  19.642  19.199  0.00  0.00    +0.157 C 
ATOM     15  C   UNL     1      46.538  19.003  19.775  0.00  0.00    +0.076 C 
ATOM     16  C   UNL     1      46.225  17.615  20.274  0.00  0.00    -0.192 A 
ATOM     17  C   UNL     1      47.276  16.729  20.483  0.00  0.00    +0.158 A 
ATOM     20  C   UNL     1      47.026  15.446  20.944  0.00  0.00    -0.065 A 
ATOM     21  C   UNL     1      45.722  15.046  21.199  0.00  0.00    +0.158 A 
ATOM     24  C   UNL     1      44.676  15.928  20.990  0.00  0.00    -0.044 A 
ATOM     25  C   UNL     1      44.925  17.215  20.524  0.00  0.00    +0.175 A 
ATOM     26  O   UNL     1      43.868  18.045  20.322  0.00  0.00    -0.292 OA
ENDROOT
BRANCH  11  10
ATOM      1  C   UNL     1      41.682  19.492  19.701  0.00  0.00    +0.076 A 
ATOM      2  C   UNL     1      40.544  20.140  19.254  0.00  0.00    +0.003 A 
ATOM      3  C   UNL     1      40.620  21.456  18.827  0.00  0.00    +0.090 A 
ATOM      6  C   UNL     1      41.841  22.122  18.846  0.00  0.00    +0.078 A 
ATOM      9  C   UNL     1      42.976  21.468  19.295  0.00  0.00    +0.017 A 
ATOM     10  C   UNL     1      42.895  20.155  19.720  0.00  0.00    -0.081 A 
BRANCH   3   4
ATOM      4  O   UNL     1      39.501  22.094  18.387  0.00  0.00    -0.488 OA
ATOM      5  H   UNL     1      39.330  21.981  17.442  0.00  0.00    +0.389 HD
ENDBRANCH   3   4
BRANCH   6   7
ATOM      7  O   UNL     1      41.920  23.414  18.427  0.00  0.00    -0.486 OA
ATOM      8  H   UNL     1      42.117  23.511  17.485  0.00  0.00    +0.388 HD
ENDBRANCH   6   7
ENDBRANCH  11  10
BRANCH  12  13
ATOM     13  O   UNL     1      44.934  19.012  17.961  0.00  0.00    -0.547 OA
ATOM     14  H   UNL     1      45.412  18.187  17.796  0.00  0.00    +0.383 HD
ENDBRANCH  12  13
BRANCH  17  18
ATOM     18  O   UNL     1      48.552  17.121  20.234  0.00  0.00    -0.492 OA
ATOM     19  H   UNL     1      49.219  16.641  20.747  0.00  0.00    +0.394 HD
ENDBRANCH  17  18
BRANCH  21  22
ATOM     22  O   UNL     1      45.473  13.790  21.653  0.00  0.00    -0.492 OA
ATOM     23  H   UNL     1      45.472  13.114  20.960  0.00  0.00    +0.396 HD
ENDBRANCH  21  22
TORSDOF 6
ENDMDL
MODEL 2
REMARK VINA RESULT:      -5.7      1.205      6.783
REMARK  Name = ZINC00119988
REMARK  6 active torsions:
REMARK  status: ('A' for Active; 'I' for Inactive)
REMARK    1  A    between atoms: C3_3  and  O6_23
REMARK    2  A    between atoms: C4_4  and  O5_22
REMARK    3  A    between atoms: C6_6  and  C7_7
REMARK    4  A    between atoms: C8_9  and  O4_21
REMARK    5  A    between atoms: C11_13  and  O3_20
REMARK    6  A    between atoms: C13_15  and  O2_19
REMARK                            x       y       z     vdW  Elec       q    Type
REMARK                         _______ _______ _______ _____ _____    ______ ____
ROOT
ATOM     11  C   UNL     1      44.437  18.884  19.937  0.00  0.00    +0.243 C 
ATOM     12  C   UNL     1      44.826  20.084  20.809  0.00  0.00    +0.157 C 
ATOM     15  C   UNL     1      44.496  21.364  20.037  0.00  0.00    +0.076 C 
ATOM     16  C   UNL     1      43.097  21.276  19.481  0.00  0.00    -0.192 A 
ATOM     17  C   UNL     1      42.463  22.447  19.081  0.00  0.00    +0.158 A 
ATOM     20  C   UNL     1      41.178  22.404  18.564  0.00  0.00    -0.065 A 
ATOM     21  C   UNL     1      40.523  21.187  18.443  0.00  0.00    +0.158 A 
ATOM     24  C   UNL     1      41.154  20.021  18.843  0.00  0.00    -0.044 A 
ATOM     25  C   UNL     1      42.442  20.063  19.366  0.00  0.00    +0.175 A 
ATOM     26  O   UNL     1      43.020  18.897  19.755  0.00  0.00    -0.292 OA
ENDROOT
BRANCH  11  10
ATOM      1  C   UNL     1      43.951  16.942  21.439  0.00  0.00    +0.076 A 
ATOM      2  C   UNL     1      44.323  15.769  22.071  0.00  0.00    +0.003 A 
ATOM      3  C   UNL     1      45.597  15.257  21.885  0.00  0.00    +0.090 A 
ATOM      6  C   UNL     1      46.499  15.924  21.063  0.00  0.00    +0.078 A 
ATOM      9  C   UNL     1      46.120  17.099  20.433  0.00  0.00    +0.017 A 
ATOM     10  C   UNL     1      44.847  17.605  20.623  0.00  0.00    -0.081 A 
BRANCH   3   4
ATOM      4  O   UNL     1      45.964  14.103  22.505  0.00  0.00    -0.488 OA
ATOM      5  H   UNL     1      45.331  13.794  23.168  0.00  0.00    +0.389 HD
ENDBRANCH   3   4
BRANCH   6   7
ATOM      7  O   UNL     1      47.751  15.425  20.877  0.00  0.00    -0.486 OA
ATOM      8  H   UNL     1      47.908  14.581  21.321  0.00  0.00    +0.388 HD
ENDBRANCH   6   7
ENDBRANCH  11  10
BRANCH  12  13
ATOM     13  O   UNL     1      44.084  20.054  22.031  0.00  0.00    -0.547 OA
ATOM     14  H   UNL     1      43.945  19.164  22.385  0.00  0.00    +0.383 HD
ENDBRANCH  12  13
BRANCH  17  18
ATOM     18  O   UNL     1      43.105  23.639  19.198  0.00  0.00    -0.492 OA
ATOM     19  H   UNL     1      43.710  23.688  19.951  0.00  0.00    +0.394 HD
ENDBRANCH  17  18
BRANCH  21  22
ATOM     22  O   UNL     1      39.264  21.140  17.934  0.00  0.00    -0.492 OA
ATOM     23  H   UNL     1      38.568  21.209  18.602  0.00  0.00    +0.396 HD
ENDBRANCH  21  22
TORSDOF 6
ENDMDL
MODEL 3
REMARK VINA RESULT:      -5.6      4.128      6.067
REMARK  Name = ZINC00119988
REMARK  6 active torsions:
REMARK  status: ('A' for Active; 'I' for Inactive)
REMARK    1  A    between atoms: C3_3  and  O6_23
REMARK    2  A    between atoms: C4_4  and  O5_22
REMARK    3  A    between atoms: C6_6  and  C7_7
REMARK    4  A    between atoms: C8_9  and  O4_21
REMARK    5  A    between atoms: C11_13  and  O3_20
REMARK    6  A    between atoms: C13_15  and  O2_19
REMARK                            x       y       z     vdW  Elec       q    Type
REMARK                         _______ _______ _______ _____ _____    ______ ____
ROOT
ATOM     11  C   UNL     1      47.934  20.157  19.553  0.00  0.00    +0.243 C 
ATOM     12  C   UNL     1      48.684  19.299  20.579  0.00  0.00    +0.157 C 
ATOM     15  C   UNL     1      49.653  18.386  19.823  0.00  0.00    +0.076 C 
ATOM     16  C   UNL     1      50.437  19.194  18.821  0.00  0.00    -0.192 A 
ATOM     17  C   UNL     1      51.612  18.660  18.305  0.00  0.00    +0.158 A 
ATOM     20  C   UNL     1      52.357  19.373  17.380  0.00  0.00    -0.065 A 
ATOM     21  C   UNL     1      51.927  20.626  16.967  0.00  0.00    +0.158 A 
ATOM     24  C   UNL     1      50.758  21.159  17.482  0.00  0.00    -0.044 A 
ATOM     25  C   UNL     1      50.011  20.445  18.413  0.00  0.00    +0.175 A 
ATOM     26  O   UNL     1      48.876  21.010  18.901  0.00  0.00    -0.292 OA
ENDROOT
BRANCH  11  10
ATOM      1  C   UNL     1      47.283  22.060  21.041  0.00  0.00    +0.076 A 
ATOM      2  C   UNL     1      46.332  22.829  21.688  0.00  0.00    +0.003 A 
ATOM      3  C   UNL     1      44.987  22.531  21.545  0.00  0.00    +0.090 A 
ATOM      6  C   UNL     1      44.595  21.456  20.753  0.00  0.00    +0.078 A 
ATOM      9  C   UNL     1      45.552  20.690  20.109  0.00  0.00    +0.017 A 
ATOM     10  C   UNL     1      46.894  20.992  20.254  0.00  0.00    -0.081 A 
BRANCH   3   4
ATOM      4  O   UNL     1      44.051  23.287  22.181  0.00  0.00    -0.488 OA
ATOM      5  H   UNL     1      43.160  22.911  22.157  0.00  0.00    +0.389 HD
ENDBRANCH   3   4
BRANCH   6   7
ATOM      7  O   UNL     1      43.275  21.159  20.611  0.00  0.00    -0.486 OA
ATOM      8  H   UNL     1      43.041  20.816  19.737  0.00  0.00    +0.388 HD
ENDBRANCH   6   7
ENDBRANCH  11  10
BRANCH  12  13
ATOM     13  O   UNL     1      49.415  20.143  21.471  0.00  0.00    -0.547 OA
ATOM     14  H   UNL     1      49.331  21.087  21.278  0.00  0.00    +0.383 HD
ENDBRANCH  12  13
BRANCH  17  18
ATOM     18  O   UNL     1      52.033  17.432  18.708  0.00  0.00    -0.492 OA
ATOM     19  H   UNL     1      52.991  17.362  18.822  0.00  0.00    +0.394 HD
ENDBRANCH  17  18
BRANCH  21  22
ATOM     22  O   UNL     1      52.653  21.329  16.058  0.00  0.00    -0.492 OA
ATOM     23  H   UNL     1      53.477  20.896  15.793  0.00  0.00    +0.396 HD
ENDBRANCH  21  22
TORSDOF 6
ENDMDL
MODEL 4
REMARK VINA RESULT:      -5.5      2.970      7.358
REMARK  Name = ZINC00119988
REMARK  6 active torsions:
REMARK  status: ('A' for Active; 'I' for Inactive)
REMARK    1  A    between atoms: C3_3  and  O6_23
REMARK    2  A    between atoms: C4_4  and  O5_22
REMARK    3  A    between atoms: C6_6  and  C7_7
REMARK    4  A    between atoms: C8_9  and  O4_21
REMARK    5  A    between atoms: C11_13  and  O3_20
REMARK    6  A    between atoms: C13_15  and  O2_19
REMARK                            x       y       z     vdW  Elec       q    Type
REMARK                         _______ _______ _______ _____ _____    ______ ____
ROOT
ATOM     11  C   UNL     1      47.345  19.419  19.337  0.00  0.00    +0.243 C 
ATOM     12  C   UNL     1      46.464  18.326  18.720  0.00  0.00    +0.157 C 
ATOM     15  C   UNL     1      45.075  18.412  19.360  0.00  0.00    +0.076 C 
ATOM     16  C   UNL     1      44.598  19.842  19.346  0.00  0.00    -0.192 A 
ATOM     17  C   UNL     1      43.242  20.094  19.523  0.00  0.00    +0.158 A 
ATOM     20  C   UNL     1      42.767  21.396  19.518  0.00  0.00    -0.065 A 
ATOM     21  C   UNL     1      43.649  22.451  19.339  0.00  0.00    +0.158 A 
ATOM     24  C   UNL     1      44.999  22.200  19.162  0.00  0.00    -0.044 A 
ATOM     25  C   UNL     1      45.477  20.894  19.162  0.00  0.00    +0.175 A 
ATOM     26  O   UNL     1      46.807  20.692  18.975  0.00  0.00    -0.292 OA
ENDROOT
BRANCH  11  10
ATOM      1  C   UNL     1      49.252  18.053  18.465  0.00  0.00    +0.076 A 
ATOM      2  C   UNL     1      50.542  17.934  17.980  0.00  0.00    +0.003 A 
ATOM      3  C   UNL     1      51.334  19.061  17.837  0.00  0.00    +0.090 A 
ATOM      6  C   UNL     1      50.831  20.311  18.182  0.00  0.00    +0.078 A 
ATOM      9  C   UNL     1      49.538  20.423  18.667  0.00  0.00    +0.017 A 
ATOM     10  C   UNL     1      48.752  19.295  18.808  0.00  0.00    -0.081 A 
BRANCH   3   4
ATOM      4  O   UNL     1      52.603  18.946  17.360  0.00  0.00    -0.488 OA
ATOM      5  H   UNL     1      52.898  18.032  17.244  0.00  0.00    +0.389 HD
ENDBRANCH   3   4
BRANCH   6   7
ATOM      7  O   UNL     1      51.605  21.421  18.044  0.00  0.00    -0.486 OA
ATOM      8  H   UNL     1      51.231  22.090  17.454  0.00  0.00    +0.388 HD
ENDBRANCH   6   7
ENDBRANCH  11  10
BRANCH  12  13
ATOM     13  O   UNL     1      46.358  18.530  17.310  0.00  0.00    -0.547 OA
ATOM     14  H   UNL     1      47.208  18.537  16.848  0.00  0.00    +0.383 HD
ENDBRANCH  12  13
BRANCH  17  18
ATOM     18  O   UNL     1      42.378  19.060  19.699  0.00  0.00    -0.492 OA
ATOM     19  H   UNL     1      42.040  18.684  18.875  0.00  0.00    +0.394 HD
ENDBRANCH  17  18
BRANCH  21  22
ATOM     22  O   UNL     1      43.189  23.730  19.336  0.00  0.00    -0.492 OA
ATOM     23  H   UNL     1      43.411  24.226  18.536  0.00  0.00    +0.396 HD
ENDBRANCH  21  22
TORSDOF 6
ENDMDL
MODEL 5
REMARK VINA RESULT:      -5.5      3.309      5.021
REMARK  Name = ZINC00119988
REMARK  6 active torsions:
REMARK  status: ('A' for Active; 'I' for Inactive)
REMARK    1  A    between atoms: C3_3  and  O6_23
REMARK    2  A    between atoms: C4_4  and  O5_22
REMARK    3  A    between atoms: C6_6  and  C7_7
REMARK    4  A    between atoms: C8_9  and  O4_21
REMARK    5  A    between atoms: C11_13  and  O3_20
REMARK    6  A    between atoms: C13_15  and  O2_19
REMARK                            x       y       z     vdW  Elec       q    Type
REMARK                         _______ _______ _______ _____ _____    ______ ____
ROOT
ATOM     11  C   UNL     1      47.090  20.136  18.782  0.00  0.00    +0.243 C 
ATOM     12  C   UNL     1      46.652  18.689  19.034  0.00  0.00    +0.157 C 
ATOM     15  C   UNL     1      47.405  17.782  18.056  0.00  0.00    +0.076 C 
ATOM     16  C   UNL     1      48.873  18.124  18.074  0.00  0.00    -0.192 A 
ATOM     17  C   UNL     1      49.779  17.201  17.565  0.00  0.00    +0.158 A 
ATOM     20  C   UNL     1      51.136  17.482  17.563  0.00  0.00    -0.065 A 
ATOM     21  C   UNL     1      51.591  18.690  18.070  0.00  0.00    +0.158 A 
ATOM     24  C   UNL     1      50.689  19.608  18.579  0.00  0.00    -0.044 A 
ATOM     25  C   UNL     1      49.327  19.326  18.585  0.00  0.00    +0.175 A 
ATOM     26  O   UNL     1      48.478  20.251  19.103  0.00  0.00    -0.292 OA
ENDROOT
BRANCH  11  10
ATOM      1  C   UNL     1      46.874  21.646  20.766  0.00  0.00    +0.076 A 
ATOM      2  C   UNL     1      46.142  22.501  21.570  0.00  0.00    +0.003 A 
ATOM      3  C   UNL     1      44.821  22.781  21.261  0.00  0.00    +0.090 A 
ATOM      6  C   UNL     1      44.233  22.200  20.143  0.00  0.00    +0.078 A 
ATOM      9  C   UNL     1      44.971  21.344  19.341  0.00  0.00    +0.017 A 
ATOM     10  C   UNL     1      46.289  21.068  19.654  0.00  0.00    -0.081 A 
BRANCH   3   4
ATOM      4  O   UNL     1      44.101  23.622  22.052  0.00  0.00    -0.488 OA
ATOM      5  H   UNL     1      43.318  23.992  21.621  0.00  0.00    +0.389 HD
ENDBRANCH   3   4
BRANCH   6   7
ATOM      7  O   UNL     1      42.936  22.472  19.835  0.00  0.00    -0.486 OA
ATOM      8  H   UNL     1      42.327  22.381  20.582  0.00  0.00    +0.388 HD
ENDBRANCH   6   7
ENDBRANCH  11  10
BRANCH  12  13
ATOM     13  O   UNL     1      46.968  18.316  20.377  0.00  0.00    -0.547 OA
ATOM     14  H   UNL     1      47.429  17.469  20.453  0.00  0.00    +0.383 HD
ENDBRANCH  12  13
BRANCH  17  18
ATOM     18  O   UNL     1      49.333  16.018  17.067  0.00  0.00    -0.492 OA
ATOM     19  H   UNL     1      49.002  16.072  16.160  0.00  0.00    +0.394 HD
ENDBRANCH  17  18
BRANCH  21  22
ATOM     22  O   UNL     1      52.921  18.970  18.068  0.00  0.00    -0.492 OA
ATOM     23  H   UNL     1      53.438  18.420  17.465  0.00  0.00    +0.396 HD
ENDBRANCH  21  22
TORSDOF 6
ENDMDL
MODEL 6
REMARK VINA RESULT:      -5.5      2.788      4.235
REMARK  Name = ZINC00119988
REMARK  6 active torsions:
REMARK  status: ('A' for Active; 'I' for Inactive)
REMARK    1  A    between atoms: C3_3  and  O6_23
REMARK    2  A    between atoms: C4_4  and  O5_22
REMARK    3  A    between atoms: C6_6  and  C7_7
REMARK    4  A    between atoms: C8_9  and  O4_21
REMARK    5  A    between atoms: C11_13  and  O3_20
REMARK    6  A    between atoms: C13_15  and  O2_19
REMARK                            x       y       z     vdW  Elec       q    Type
REMARK                         _______ _______ _______ _____ _____    ______ ____
ROOT
ATOM     11  C   UNL     1      45.923  18.608  18.061  0.00  0.00    +0.243 C 
ATOM     12  C   UNL     1      45.544  17.358  18.864  0.00  0.00    +0.157 C 
ATOM     15  C   UNL     1      46.168  16.140  18.177  0.00  0.00    +0.076 C 
ATOM     16  C   UNL     1      47.619  16.413  17.877  0.00  0.00    -0.192 A 
ATOM     17  C   UNL     1      48.459  15.339  17.609  0.00  0.00    +0.158 A 
ATOM     20  C   UNL     1      49.799  15.553  17.326  0.00  0.00    -0.065 A 
ATOM     21  C   UNL     1      50.303  16.845  17.309  0.00  0.00    +0.158 A 
ATOM     24  C   UNL     1      49.466  17.915  17.577  0.00  0.00    -0.044 A 
ATOM     25  C   UNL     1      48.122  17.702  17.865  0.00  0.00    +0.175 A 
ATOM     26  O   UNL     1      47.339  18.779  18.132  0.00  0.00    -0.292 OA
ENDROOT
BRANCH  11  10
ATOM      1  C   UNL     1      45.960  20.966  18.899  0.00  0.00    +0.076 A 
ATOM      2  C   UNL     1      45.335  22.076  19.438  0.00  0.00    +0.003 A 
ATOM      3  C   UNL     1      43.981  22.035  19.727  0.00  0.00    +0.090 A 
ATOM      6  C   UNL     1      43.252  20.877  19.475  0.00  0.00    +0.078 A 
ATOM      9  C   UNL     1      43.885  19.769  18.934  0.00  0.00    +0.017 A 
ATOM     10  C   UNL     1      45.237  19.815  18.648  0.00  0.00    -0.081 A 
BRANCH   3   4
ATOM      4  O   UNL     1      43.364  23.126  20.258  0.00  0.00    -0.488 OA
ATOM      5  H   UNL     1      42.942  23.697  19.601  0.00  0.00    +0.389 HD
ENDBRANCH   3   4
BRANCH   6   7
ATOM      7  O   UNL     1      41.923  20.832  19.757  0.00  0.00    -0.486 OA
ATOM      8  H   UNL     1      41.462  20.077  19.365  0.00  0.00    +0.388 HD
ENDBRANCH   6   7
ENDBRANCH  11  10
BRANCH  12  13
ATOM     13  O   UNL     1      46.048  17.470  20.197  0.00  0.00    -0.547 OA
ATOM     14  H   UNL     1      46.658  16.762  20.448  0.00  0.00    +0.383 HD
ENDBRANCH  12  13
BRANCH  17  18
ATOM     18  O   UNL     1      47.966  14.073  17.625  0.00  0.00    -0.492 OA
ATOM     19  H   UNL     1      47.174  13.965  18.171  0.00  0.00    +0.394 HD
ENDBRANCH  17  18
BRANCH  21  22
ATOM     22  O   UNL     1      51.615  17.060  17.030  0.00  0.00    -0.492 OA
ATOM     23  H   UNL     1      52.113  16.254  16.838  0.00  0.00    +0.396 HD
ENDBRANCH  21  22
TORSDOF 6
ENDMDL
MODEL 7
REMARK VINA RESULT:      -5.5      6.897     10.304
REMARK  Name = ZINC00119988
REMARK  6 active torsions:
REMARK  status: ('A' for Active; 'I' for Inactive)
REMARK    1  A    between atoms: C3_3  and  O6_23
REMARK    2  A    between atoms: C4_4  and  O5_22
REMARK    3  A    between atoms: C6_6  and  C7_7
REMARK    4  A    between atoms: C8_9  and  O4_21
REMARK    5  A    between atoms: C11_13  and  O3_20
REMARK    6  A    between atoms: C13_15  and  O2_19
REMARK                            x       y       z     vdW  Elec       q    Type
REMARK                         _______ _______ _______ _____ _____    ______ ____
ROOT
ATOM     11  C   UNL     1      51.428  16.006  17.122  0.00  0.00    +0.243 C 
ATOM     12  C   UNL     1      50.055  16.154  17.788  0.00  0.00    +0.157 C 
ATOM     15  C   UNL     1      50.077  17.413  18.659  0.00  0.00    +0.076 C 
ATOM     16  C   UNL     1      50.643  18.566  17.870  0.00  0.00    -0.192 A 
ATOM     17  C   UNL     1      50.410  19.861  18.319  0.00  0.00    +0.158 A 
ATOM     20  C   UNL     1      50.917  20.945  17.621  0.00  0.00    -0.065 A 
ATOM     21  C   UNL     1      51.661  20.737  16.468  0.00  0.00    +0.158 A 
ATOM     24  C   UNL     1      51.891  19.448  16.019  0.00  0.00    -0.044 A 
ATOM     25  C   UNL     1      51.380  18.358  16.718  0.00  0.00    +0.175 A 
ATOM     26  O   UNL     1      51.621  17.111  16.237  0.00  0.00    -0.292 OA
ENDROOT
BRANCH  11  10
ATOM      1  C   UNL     1      51.224  13.517  16.977  0.00  0.00    +0.076 A 
ATOM      2  C   UNL     1      51.268  12.331  16.265  0.00  0.00    +0.003 A 
ATOM      3  C   UNL     1      51.565  12.347  14.912  0.00  0.00    +0.090 A 
ATOM      6  C   UNL     1      51.820  13.556  14.272  0.00  0.00    +0.078 A 
ATOM      9  C   UNL     1      51.774  14.740  14.991  0.00  0.00    +0.017 A 
ATOM     10  C   UNL     1      51.477  14.718  16.341  0.00  0.00    -0.081 A 
BRANCH   3   4
ATOM      4  O   UNL     1      51.609  11.182  14.211  0.00  0.00    -0.488 OA
ATOM      5  H   UNL     1      50.973  10.519  14.510  0.00  0.00    +0.389 HD
ENDBRANCH   3   4
BRANCH   6   7
ATOM      7  O   UNL     1      52.112  13.577  12.944  0.00  0.00    -0.486 OA
ATOM      8  H   UNL     1      52.220  14.466  12.578  0.00  0.00    +0.388 HD
ENDBRANCH   6   7
ENDBRANCH  11  10
BRANCH  12  13
ATOM     13  O   UNL     1      49.042  16.278  16.787  0.00  0.00    -0.547 OA
ATOM     14  H   UNL     1      49.147  17.051  16.215  0.00  0.00    +0.383 HD
ENDBRANCH  12  13
BRANCH  17  18
ATOM     18  O   UNL     1      49.683  20.066  19.449  0.00  0.00    -0.492 OA
ATOM     19  H   UNL     1      50.214  20.299  20.223  0.00  0.00    +0.394 HD
ENDBRANCH  17  18
BRANCH  21  22
ATOM     22  O   UNL     1      52.162  21.797  15.781  0.00  0.00    -0.492 OA
ATOM     23  H   UNL     1      51.775  22.647  16.033  0.00  0.00    +0.396 HD
ENDBRANCH  21  22
TORSDOF 6
ENDMDL
MODEL 8
REMARK VINA RESULT:      -5.5      6.481      9.547
REMARK  Name = ZINC00119988
REMARK  6 active torsions:
REMARK  status: ('A' for Active; 'I' for Inactive)
REMARK    1  A    between atoms: C3_3  and  O6_23
REMARK    2  A    between atoms: C4_4  and  O5_22
REMARK    3  A    between atoms: C6_6  and  C7_7
REMARK    4  A    between atoms: C8_9  and  O4_21
REMARK    5  A    between atoms: C11_13  and  O3_20
REMARK    6  A    between atoms: C13_15  and  O2_19
REMARK                            x       y       z     vdW  Elec       q    Type
REMARK                         _______ _______ _______ _____ _____    ______ ____
ROOT
ATOM     11  C   UNL     1      48.509  12.609  16.150  0.00  0.00    +0.243 C 
ATOM     12  C   UNL     1      47.093  12.944  15.667  0.00  0.00    +0.157 C 
ATOM     15  C   UNL     1      46.106  12.565  16.775  0.00  0.00    +0.076 C 
ATOM     16  C   UNL     1      46.587  13.116  18.093  0.00  0.00    -0.192 A 
ATOM     17  C   UNL     1      45.682  13.220  19.143  0.00  0.00    +0.158 A 
ATOM     20  C   UNL     1      46.089  13.719  20.370  0.00  0.00    -0.065 A 
ATOM     21  C   UNL     1      47.407  14.115  20.551  0.00  0.00    +0.158 A 
ATOM     24  C   UNL     1      48.308  14.013  19.505  0.00  0.00    -0.044 A 
ATOM     25  C   UNL     1      47.900  13.515  18.272  0.00  0.00    +0.175 A 
ATOM     26  O   UNL     1      48.814  13.442  17.270  0.00  0.00    -0.292 OA
ENDROOT
BRANCH  11  10
ATOM      1  C   UNL     1      50.803  13.204  15.346  0.00  0.00    +0.076 A 
ATOM      2  C   UNL     1      51.714  13.444  14.333  0.00  0.00    +0.003 A 
ATOM      3  C   UNL     1      51.316  13.349  13.009  0.00  0.00    +0.090 A 
ATOM      6  C   UNL     1      50.002  13.012  12.702  0.00  0.00    +0.078 A 
ATOM      9  C   UNL     1      49.095  12.773  13.722  0.00  0.00    +0.017 A 
ATOM     10  C   UNL     1      49.497  12.869  15.041  0.00  0.00    -0.081 A 
BRANCH   3   4
ATOM      4  O   UNL     1      52.211  13.585  12.011  0.00  0.00    -0.488 OA
ATOM      5  H   UNL     1      52.009  14.368  11.480  0.00  0.00    +0.389 HD
ENDBRANCH   3   4
BRANCH   6   7
ATOM      7  O   UNL     1      49.608  12.917  11.404  0.00  0.00    -0.486 OA
ATOM      8  H   UNL     1      50.291  13.165  10.766  0.00  0.00    +0.388 HD
ENDBRANCH   6   7
ENDBRANCH  11  10
BRANCH  12  13
ATOM     13  O   UNL     1      46.995  14.343  15.392  0.00  0.00    -0.547 OA
ATOM     14  H   UNL     1      46.641  14.865  16.126  0.00  0.00    +0.383 HD
ENDBRANCH  12  13
BRANCH  17  18
ATOM     18  O   UNL     1      44.392  12.831  18.967  0.00  0.00    -0.492 OA
ATOM     19  H   UNL     1      44.223  11.908  19.200  0.00  0.00    +0.394 HD
ENDBRANCH  17  18
BRANCH  21  22
ATOM     22  O   UNL     1      47.811  14.603  21.753  0.00  0.00    -0.492 OA
ATOM     23  H   UNL     1      47.143  15.137  22.205  0.00  0.00    +0.396 HD
ENDBRANCH  21  22
TORSDOF 6
ENDMDL
MODEL 9
REMARK VINA RESULT:      -5.4      2.804      3.189
REMARK  Name = ZINC00119988
REMARK  6 active torsions:
REMARK  status: ('A' for Active; 'I' for Inactive)
REMARK    1  A    between atoms: C3_3  and  O6_23
REMARK    2  A    between atoms: C4_4  and  O5_22
REMARK    3  A    between atoms: C6_6  and  C7_7
REMARK    4  A    between atoms: C8_9  and  O4_21
REMARK    5  A    between atoms: C11_13  and  O3_20
REMARK    6  A    between atoms: C13_15  and  O2_19
REMARK                            x       y       z     vdW  Elec       q    Type
REMARK                         _______ _______ _______ _____ _____    ______ ____
ROOT
ATOM     11  C   UNL     1      46.179  19.028  19.677  0.00  0.00    +0.243 C 
ATOM     12  C   UNL     1      46.022  19.133  18.155  0.00  0.00    +0.157 C 
ATOM     15  C   UNL     1      46.702  17.918  17.518  0.00  0.00    +0.076 C 
ATOM     16  C   UNL     1      46.259  16.661  18.221  0.00  0.00    -0.192 A 
ATOM     17  C   UNL     1      46.446  15.439  17.585  0.00  0.00    +0.158 A 
ATOM     20  C   UNL     1      46.053  14.262  18.203  0.00  0.00    -0.065 A 
ATOM     21  C   UNL     1      45.473  14.304  19.462  0.00  0.00    +0.158 A 
ATOM     24  C   UNL     1      45.285  15.521  20.095  0.00  0.00    -0.044 A 
ATOM     25  C   UNL     1      45.676  16.703  19.475  0.00  0.00    +0.175 A 
ATOM     26  O   UNL     1      45.464  17.876  20.127  0.00  0.00    -0.292 OA
ENDROOT
BRANCH  11  10
ATOM      1  C   UNL     1      45.252  20.232  21.665  0.00  0.00    +0.076 A 
ATOM      2  C   UNL     1      44.732  21.362  22.270  0.00  0.00    +0.003 A 
ATOM      3  C   UNL     1      44.577  22.529  21.539  0.00  0.00    +0.090 A 
ATOM      6  C   UNL     1      44.943  22.560  20.197  0.00  0.00    +0.078 A 
ATOM      9  C   UNL     1      45.462  21.424  19.597  0.00  0.00    +0.017 A 
ATOM     10  C   UNL     1      45.615  20.263  20.332  0.00  0.00    -0.081 A 
BRANCH   3   4
ATOM      4  O   UNL     1      44.067  23.641  22.133  0.00  0.00    -0.488 OA
ATOM      5  H   UNL     1      43.283  23.997  21.693  0.00  0.00    +0.389 HD
ENDBRANCH   3   4
BRANCH   6   7
ATOM      7  O   UNL     1      44.792  23.703  19.476  0.00  0.00    -0.486 OA
ATOM      8  H   UNL     1      44.865  23.578  18.519  0.00  0.00    +0.388 HD
ENDBRANCH   6   7
ENDBRANCH  11  10
BRANCH  12  13
ATOM     13  O   UNL     1      44.634  19.143  17.813  0.00  0.00    -0.547 OA
ATOM     14  H   UNL     1      44.405  18.555  17.081  0.00  0.00    +0.383 HD
ENDBRANCH  12  13
BRANCH  17  18
ATOM     18  O   UNL     1      47.015  15.397  16.352  0.00  0.00    -0.492 OA
ATOM     19  H   UNL     1      46.430  15.059  15.659  0.00  0.00    +0.394 HD
ENDBRANCH  17  18
BRANCH  21  22
ATOM     22  O   UNL     1      45.088  13.153  20.073  0.00  0.00    -0.492 OA
ATOM     23  H   UNL     1      44.135  12.989  20.039  0.00  0.00    +0.396 HD
ENDBRANCH  21  22
TORSDOF 6
ENDMDL
