MODEL 1
REMARK VINA RESULT:      -5.7      0.000      0.000
REMARK  Name = ZINC73195993
REMARK  4 active torsions:
REMARK  status: ('A' for Active; 'I' for Inactive)
REMARK    1  A    between atoms: C1_1  and  C2_2
REMARK    2  A    between atoms: C9_10  and  O3_13
REMARK    3  A    between atoms: C10_11  and  O2_12
REMARK    4  A    between atoms: O3_13  and  C11_14
REMARK                            x       y       z     vdW  Elec       q    Type
REMARK                         _______ _______ _______ _____ _____    ______ ____
ROOT
ATOM      1  C   UNL     1      46.729  21.673  22.461  0.00  0.00    +0.075 C 
ATOM      2  C   UNL     1      45.649  21.773  21.414  0.00  0.00    -0.444 C 
ATOM      3  C   UNL     1      45.388  22.964  20.832  0.00  0.00    +0.249 C 
ATOM      4  O   UNL     1      46.095  24.060  21.192  0.00  0.00    -0.644 OA
ATOM      5  C   UNL     1      44.327  23.074  19.800  0.00  0.00    +0.392 C 
ATOM      6  C   UNL     1      43.370  21.966  19.635  0.00  0.00    -0.118 A 
ATOM      7  C   UNL     1      43.648  20.725  20.246  0.00  0.00    -0.114 A 
ATOM      8  C   UNL     1      42.759  19.668  20.103  0.00  0.00    +0.086 A 
ATOM      9  C   UNL     1      41.600  19.832  19.362  0.00  0.00    -0.050 A 
ATOM     10  C   UNL     1      41.316  21.044  18.759  0.00  0.00    +0.099 A 
ATOM     13  C   UNL     1      42.202  22.125  18.891  0.00  0.00    +0.123 A 
ATOM     16  O   UNL     1      44.249  24.066  19.101  0.00  0.00    -0.420 OA
ATOM     17  C   UNL     1      44.894  20.575  21.028  0.00  0.00    +0.431 C 
ATOM     18  O   UNL     1      45.288  19.471  21.352  0.00  0.00    -0.516 OA
ENDROOT
BRANCH  10  11
ATOM     11  O   UNL     1      40.176  21.190  18.036  0.00  0.00    -0.306 OA
ATOM     12  C   UNL     1      38.984  21.500  18.760  0.00  0.00    +0.236 C 
ENDBRANCH  10  11
BRANCH  13  14
ATOM     14  O   UNL     1      41.926  23.313  18.301  0.00  0.00    -0.469 OA
ATOM     15  H   UNL     1      42.571  24.008  18.492  0.00  0.00    +0.390 HD
ENDBRANCH  13  14
TORSDOF 2
ENDMDL
MODEL 2
REMARK VINA RESULT:      -5.1      3.145      4.582
REMARK  Name = ZINC73195993
REMARK  4 active torsions:
REMARK  status: ('A' for Active; 'I' for Inactive)
REMARK    1  A    between atoms: C1_1  and  C2_2
REMARK    2  A    between atoms: C9_10  and  O3_13
REMARK    3  A    between atoms: C10_11  and  O2_12
REMARK    4  A    between atoms: O3_13  and  C11_14
REMARK                            x       y       z     vdW  Elec       q    Type
REMARK                         _______ _______ _______ _____ _____    ______ ____
ROOT
ATOM      1  C   UNL     1      46.801  16.295  19.796  0.00  0.00    +0.075 C 
ATOM      2  C   UNL     1      45.566  17.097  20.115  0.00  0.00    -0.444 C 
ATOM      3  C   UNL     1      44.705  16.657  21.058  0.00  0.00    +0.249 C 
ATOM      4  O   UNL     1      44.955  15.498  21.710  0.00  0.00    -0.644 OA
ATOM      5  C   UNL     1      43.486  17.439  21.380  0.00  0.00    +0.392 C 
ATOM      6  C   UNL     1      43.066  18.519  20.469  0.00  0.00    -0.118 A 
ATOM      7  C   UNL     1      43.970  18.974  19.486  0.00  0.00    -0.114 A 
ATOM      8  C   UNL     1      43.595  19.992  18.619  0.00  0.00    +0.086 A 
ATOM      9  C   UNL     1      42.334  20.559  18.719  0.00  0.00    -0.050 A 
ATOM     10  C   UNL     1      41.440  20.121  19.679  0.00  0.00    +0.099 A 
ATOM     13  C   UNL     1      41.800  19.093  20.565  0.00  0.00    +0.123 A 
ATOM     16  O   UNL     1      42.841  17.190  22.380  0.00  0.00    -0.420 OA
ATOM     17  C   UNL     1      45.310  18.356  19.404  0.00  0.00    +0.431 C 
ATOM     18  O   UNL     1      46.192  18.881  18.750  0.00  0.00    -0.516 OA
ENDROOT
BRANCH  10  11
ATOM     11  O   UNL     1      40.209  20.686  19.764  0.00  0.00    -0.306 OA
ATOM     12  C   UNL     1      39.761  21.440  18.636  0.00  0.00    +0.236 C 
ENDBRANCH  10  11
BRANCH  13  14
ATOM     14  O   UNL     1      40.925  18.663  21.506  0.00  0.00    -0.469 OA
ATOM     15  H   UNL     1      41.332  18.463  22.361  0.00  0.00    +0.390 HD
ENDBRANCH  13  14
TORSDOF 2
ENDMDL
MODEL 3
REMARK VINA RESULT:      -5.1     20.815     22.635
REMARK  Name = ZINC73195993
REMARK  4 active torsions:
REMARK  status: ('A' for Active; 'I' for Inactive)
REMARK    1  A    between atoms: C1_1  and  C2_2
REMARK    2  A    between atoms: C9_10  and  O3_13
REMARK    3  A    between atoms: C10_11  and  O2_12
REMARK    4  A    between atoms: O3_13  and  C11_14
REMARK                            x       y       z     vdW  Elec       q    Type
REMARK                         _______ _______ _______ _____ _____    ______ ____
ROOT
ATOM      1  C   UNL     1      52.124  34.604   7.127  0.00  0.00    +0.075 C 
ATOM      2  C   UNL     1      53.079  34.027   6.114  0.00  0.00    -0.444 C 
ATOM      3  C   UNL     1      52.615  33.205   5.149  0.00  0.00    +0.249 C 
ATOM      4  O   UNL     1      51.298  32.902   5.096  0.00  0.00    -0.644 OA
ATOM      5  C   UNL     1      53.547  32.630   4.146  0.00  0.00    +0.392 C 
ATOM      6  C   UNL     1      54.999  32.713   4.387  0.00  0.00    -0.118 A 
ATOM      7  C   UNL     1      55.476  33.575   5.397  0.00  0.00    -0.114 A 
ATOM      8  C   UNL     1      56.840  33.669   5.639  0.00  0.00    +0.086 A 
ATOM      9  C   UNL     1      57.731  32.916   4.890  0.00  0.00    -0.050 A 
ATOM     10  C   UNL     1      57.274  32.069   3.897  0.00  0.00    +0.099 A 
ATOM     13  C   UNL     1      55.899  31.960   3.636  0.00  0.00    +0.123 A 
ATOM     16  O   UNL     1      53.118  32.097   3.141  0.00  0.00    -0.420 OA
ATOM     17  C   UNL     1      54.505  34.369   6.179  0.00  0.00    +0.431 C 
ATOM     18  O   UNL     1      54.883  35.294   6.874  0.00  0.00    -0.516 OA
ENDROOT
BRANCH  10  11
ATOM     11  O   UNL     1      58.159  31.339   3.171  0.00  0.00    -0.306 OA
ATOM     12  C   UNL     1      58.846  30.286   3.852  0.00  0.00    +0.236 C 
ENDBRANCH  10  11
BRANCH  13  14
ATOM     14  O   UNL     1      55.450  31.130   2.663  0.00  0.00    -0.469 OA
ATOM     15  H   UNL     1      54.663  31.452   2.203  0.00  0.00    +0.390 HD
ENDBRANCH  13  14
TORSDOF 2
ENDMDL
MODEL 4
REMARK VINA RESULT:      -4.9      1.192      2.964
REMARK  Name = ZINC73195993
REMARK  4 active torsions:
REMARK  status: ('A' for Active; 'I' for Inactive)
REMARK    1  A    between atoms: C1_1  and  C2_2
REMARK    2  A    between atoms: C9_10  and  O3_13
REMARK    3  A    between atoms: C10_11  and  O2_12
REMARK    4  A    between atoms: O3_13  and  C11_14
REMARK                            x       y       z     vdW  Elec       q    Type
REMARK                         _______ _______ _______ _____ _____    ______ ____
ROOT
ATOM      1  C   UNL     1      47.522  22.148  21.852  0.00  0.00    +0.075 C 
ATOM      2  C   UNL     1      46.160  21.666  21.424  0.00  0.00    -0.444 C 
ATOM      3  C   UNL     1      45.853  20.354  21.519  0.00  0.00    +0.249 C 
ATOM      4  O   UNL     1      46.769  19.480  21.997  0.00  0.00    -0.644 OA
ATOM      5  C   UNL     1      44.515  19.867  21.099  0.00  0.00    +0.392 C 
ATOM      6  C   UNL     1      43.646  20.755  20.307  0.00  0.00    -0.118 A 
ATOM      7  C   UNL     1      43.972  22.124  20.211  0.00  0.00    -0.114 A 
ATOM      8  C   UNL     1      43.166  22.978  19.470  0.00  0.00    +0.086 A 
ATOM      9  C   UNL     1      42.042  22.485  18.825  0.00  0.00    -0.050 A 
ATOM     10  C   UNL     1      41.713  21.145  18.911  0.00  0.00    +0.099 A 
ATOM     13  C   UNL     1      42.515  20.266  19.656  0.00  0.00    +0.123 A 
ATOM     16  O   UNL     1      44.142  18.751  21.404  0.00  0.00    -0.420 OA
ATOM     17  C   UNL     1      45.173  22.625  20.913  0.00  0.00    +0.431 C 
ATOM     18  O   UNL     1      45.346  23.820  21.062  0.00  0.00    -0.516 OA
ENDROOT
BRANCH  10  11
ATOM     11  O   UNL     1      40.610  20.677  18.274  0.00  0.00    -0.306 OA
ATOM     12  C   UNL     1      39.396  21.409  18.456  0.00  0.00    +0.236 C 
ENDBRANCH  10  11
BRANCH  13  14
ATOM     14  O   UNL     1      42.193  18.952  19.742  0.00  0.00    -0.469 OA
ATOM     15  H   UNL     1      41.637  18.634  19.017  0.00  0.00    +0.390 HD
ENDBRANCH  13  14
TORSDOF 2
ENDMDL
MODEL 5
REMARK VINA RESULT:      -4.9     20.976     22.555
REMARK  Name = ZINC73195993
REMARK  4 active torsions:
REMARK  status: ('A' for Active; 'I' for Inactive)
REMARK    1  A    between atoms: C1_1  and  C2_2
REMARK    2  A    between atoms: C9_10  and  O3_13
REMARK    3  A    between atoms: C10_11  and  O2_12
REMARK    4  A    between atoms: O3_13  and  C11_14
REMARK                            x       y       z     vdW  Elec       q    Type
REMARK                         _______ _______ _______ _____ _____    ______ ____
ROOT
ATOM      1  C   UNL     1      57.412  30.743   1.772  0.00  0.00    +0.075 C 
ATOM      2  C   UNL     1      56.742  31.589   2.825  0.00  0.00    -0.444 C 
ATOM      3  C   UNL     1      57.467  32.077   3.854  0.00  0.00    +0.249 C 
ATOM      4  O   UNL     1      58.790  31.804   3.935  0.00  0.00    -0.644 OA
ATOM      5  C   UNL     1      56.818  32.910   4.897  0.00  0.00    +0.392 C 
ATOM      6  C   UNL     1      55.347  32.947   4.971  0.00  0.00    -0.118 A 
ATOM      7  C   UNL     1      54.595  32.435   3.892  0.00  0.00    -0.114 A 
ATOM      8  C   UNL     1      53.207  32.462   3.941  0.00  0.00    +0.086 A 
ATOM      9  C   UNL     1      52.562  32.990   5.049  0.00  0.00    -0.050 A 
ATOM     10  C   UNL     1      53.289  33.494   6.112  0.00  0.00    +0.099 A 
ATOM     13  C   UNL     1      54.692  33.477   6.081  0.00  0.00    +0.123 A 
ATOM     16  O   UNL     1      57.491  33.552   5.680  0.00  0.00    -0.420 OA
ATOM     17  C   UNL     1      55.307  31.881   2.721  0.00  0.00    +0.431 C 
ATOM     18  O   UNL     1      54.711  31.666   1.683  0.00  0.00    -0.516 OA
ENDROOT
BRANCH  10  11
ATOM     11  O   UNL     1      52.643  34.009   7.190  0.00  0.00    -0.306 OA
ATOM     12  C   UNL     1      52.324  35.401   7.151  0.00  0.00    +0.236 C 
ENDBRANCH  10  11
BRANCH  13  14
ATOM     14  O   UNL     1      55.406  33.972   7.122  0.00  0.00    -0.469 OA
ATOM     15  H   UNL     1      55.357  34.933   7.212  0.00  0.00    +0.390 HD
ENDBRANCH  13  14
TORSDOF 2
ENDMDL
MODEL 6
REMARK VINA RESULT:      -4.9      4.565      6.229
REMARK  Name = ZINC73195993
REMARK  4 active torsions:
REMARK  status: ('A' for Active; 'I' for Inactive)
REMARK    1  A    between atoms: C1_1  and  C2_2
REMARK    2  A    between atoms: C9_10  and  O3_13
REMARK    3  A    between atoms: C10_11  and  O2_12
REMARK    4  A    between atoms: O3_13  and  C11_14
REMARK                            x       y       z     vdW  Elec       q    Type
REMARK                         _______ _______ _______ _____ _____    ______ ____
ROOT
ATOM      1  C   UNL     1      42.581  18.603  22.032  0.00  0.00    +0.075 C 
ATOM      2  C   UNL     1      43.628  18.212  21.021  0.00  0.00    -0.444 C 
ATOM      3  C   UNL     1      43.976  19.079  20.045  0.00  0.00    +0.249 C 
ATOM      4  O   UNL     1      43.381  20.293  19.979  0.00  0.00    -0.644 OA
ATOM      5  C   UNL     1      45.005  18.703  19.044  0.00  0.00    +0.392 C 
ATOM      6  C   UNL     1      45.419  17.293  18.936  0.00  0.00    -0.118 A 
ATOM      7  C   UNL     1      45.053  16.393  19.959  0.00  0.00    -0.114 A 
ATOM      8  C   UNL     1      45.433  15.059  19.877  0.00  0.00    +0.086 A 
ATOM      9  C   UNL     1      46.171  14.615  18.791  0.00  0.00    -0.050 A 
ATOM     10  C   UNL     1      46.536  15.488  17.783  0.00  0.00    +0.099 A 
ATOM     13  C   UNL     1      46.161  16.839  17.848  0.00  0.00    +0.123 A 
ATOM     16  O   UNL     1      45.499  19.548  18.323  0.00  0.00    -0.420 OA
ATOM     17  C   UNL     1      44.269  16.894  21.108  0.00  0.00    +0.431 C 
ATOM     18  O   UNL     1      44.152  16.220  22.115  0.00  0.00    -0.516 OA
ENDROOT
BRANCH  10  11
ATOM     11  O   UNL     1      47.259  15.037  16.726  0.00  0.00    -0.306 OA
ATOM     12  C   UNL     1      47.129  13.653  16.394  0.00  0.00    +0.236 C 
ENDBRANCH  10  11
BRANCH  13  14
ATOM     14  O   UNL     1      46.518  17.697  16.861  0.00  0.00    -0.469 OA
ATOM     15  H   UNL     1      45.963  18.487  16.805  0.00  0.00    +0.390 HD
ENDBRANCH  13  14
TORSDOF 2
ENDMDL
MODEL 7
REMARK VINA RESULT:      -4.9     20.889     22.692
REMARK  Name = ZINC73195993
REMARK  4 active torsions:
REMARK  status: ('A' for Active; 'I' for Inactive)
REMARK    1  A    between atoms: C1_1  and  C2_2
REMARK    2  A    between atoms: C9_10  and  O3_13
REMARK    3  A    between atoms: C10_11  and  O2_12
REMARK    4  A    between atoms: O3_13  and  C11_14
REMARK                            x       y       z     vdW  Elec       q    Type
REMARK                         _______ _______ _______ _____ _____    ______ ____
ROOT
ATOM      1  C   UNL     1      50.980  32.565   2.481  0.00  0.00    +0.075 C 
ATOM      2  C   UNL     1      52.163  32.678   3.408  0.00  0.00    -0.444 C 
ATOM      3  C   UNL     1      52.011  33.250   4.622  0.00  0.00    +0.249 C 
ATOM      4  O   UNL     1      50.799  33.720   4.999  0.00  0.00    -0.644 OA
ATOM      5  C   UNL     1      53.169  33.367   5.543  0.00  0.00    +0.392 C 
ATOM      6  C   UNL     1      54.527  33.139   5.019  0.00  0.00    -0.118 A 
ATOM      7  C   UNL     1      54.679  32.541   3.750  0.00  0.00    -0.114 A 
ATOM      8  C   UNL     1      55.950  32.317   3.238  0.00  0.00    +0.086 A 
ATOM      9  C   UNL     1      57.068  32.681   3.973  0.00  0.00    -0.050 A 
ATOM     10  C   UNL     1      56.931  33.268   5.218  0.00  0.00    +0.099 A 
ATOM     13  C   UNL     1      55.655  33.503   5.753  0.00  0.00    +0.123 A 
ATOM     16  O   UNL     1      52.999  33.649   6.714  0.00  0.00    -0.420 OA
ATOM     17  C   UNL     1      53.471  32.159   2.989  0.00  0.00    +0.431 C 
ATOM     18  O   UNL     1      53.558  31.425   2.023  0.00  0.00    -0.516 OA
ENDROOT
BRANCH  10  11
ATOM     11  O   UNL     1      58.035  33.618   5.926  0.00  0.00    -0.306 OA
ATOM     12  C   UNL     1      59.054  34.336   5.225  0.00  0.00    +0.236 C 
ENDBRANCH  10  11
BRANCH  13  14
ATOM     14  O   UNL     1      55.519  34.077   6.973  0.00  0.00    -0.469 OA
ATOM     15  H   UNL     1      56.356  34.233   7.431  0.00  0.00    +0.390 HD
ENDBRANCH  13  14
TORSDOF 2
ENDMDL
MODEL 8
REMARK VINA RESULT:      -4.8     20.594     22.244
REMARK  Name = ZINC73195993
REMARK  4 active torsions:
REMARK  status: ('A' for Active; 'I' for Inactive)
REMARK    1  A    between atoms: C1_1  and  C2_2
REMARK    2  A    between atoms: C9_10  and  O3_13
REMARK    3  A    between atoms: C10_11  and  O2_12
REMARK    4  A    between atoms: O3_13  and  C11_14
REMARK                            x       y       z     vdW  Elec       q    Type
REMARK                         _______ _______ _______ _____ _____    ______ ____
ROOT
ATOM      1  C   UNL     1      54.899  31.461   0.276  0.00  0.00    +0.075 C 
ATOM      2  C   UNL     1      54.043  31.800   1.470  0.00  0.00    -0.444 C 
ATOM      3  C   UNL     1      52.734  32.083   1.297  0.00  0.00    +0.249 C 
ATOM      4  O   UNL     1      52.197  32.061   0.055  0.00  0.00    -0.644 OA
ATOM      5  C   UNL     1      51.882  32.418   2.465  0.00  0.00    +0.392 C 
ATOM      6  C   UNL     1      52.524  32.737   3.752  0.00  0.00    -0.118 A 
ATOM      7  C   UNL     1      53.892  32.440   3.926  0.00  0.00    -0.114 A 
ATOM      8  C   UNL     1      54.517  32.732   5.132  0.00  0.00    +0.086 A 
ATOM      9  C   UNL     1      53.796  33.315   6.162  0.00  0.00    -0.050 A 
ATOM     10  C   UNL     1      52.454  33.611   6.003  0.00  0.00    +0.099 A 
ATOM     13  C   UNL     1      51.805  33.323   4.792  0.00  0.00    +0.123 A 
ATOM     16  O   UNL     1      50.670  32.432   2.360  0.00  0.00    -0.420 OA
ATOM     17  C   UNL     1      54.636  31.815   2.812  0.00  0.00    +0.431 C 
ATOM     18  O   UNL     1      55.732  31.321   3.004  0.00  0.00    -0.516 OA
ENDROOT
BRANCH  10  11
ATOM     11  O   UNL     1      51.762  34.181   7.022  0.00  0.00    -0.306 OA
ATOM     12  C   UNL     1      52.281  35.401   7.556  0.00  0.00    +0.236 C 
ENDBRANCH  10  11
BRANCH  13  14
ATOM     14  O   UNL     1      50.490  33.612   4.635  0.00  0.00    -0.469 OA
ATOM     15  H   UNL     1      50.261  34.530   4.835  0.00  0.00    +0.390 HD
ENDBRANCH  13  14
TORSDOF 2
ENDMDL
MODEL 9
REMARK VINA RESULT:      -4.6      1.923      4.902
REMARK  Name = ZINC73195993
REMARK  4 active torsions:
REMARK  status: ('A' for Active; 'I' for Inactive)
REMARK    1  A    between atoms: C1_1  and  C2_2
REMARK    2  A    between atoms: C9_10  and  O3_13
REMARK    3  A    between atoms: C10_11  and  O2_12
REMARK    4  A    between atoms: O3_13  and  C11_14
REMARK                            x       y       z     vdW  Elec       q    Type
REMARK                         _______ _______ _______ _____ _____    ______ ____
ROOT
ATOM      1  C   UNL     1      40.558  21.701  18.465  0.00  0.00    +0.075 C 
ATOM      2  C   UNL     1      41.884  21.400  19.117  0.00  0.00    -0.444 C 
ATOM      3  C   UNL     1      42.775  22.396  19.313  0.00  0.00    +0.249 C 
ATOM      4  O   UNL     1      42.475  23.656  18.923  0.00  0.00    -0.644 OA
ATOM      5  C   UNL     1      44.084  22.111  19.953  0.00  0.00    +0.392 C 
ATOM      6  C   UNL     1      44.524  20.712  20.093  0.00  0.00    -0.118 A 
ATOM      7  C   UNL     1      43.587  19.677  19.886  0.00  0.00    -0.114 A 
ATOM      8  C   UNL     1      43.982  18.351  20.014  0.00  0.00    +0.086 A 
ATOM      9  C   UNL     1      45.293  18.046  20.343  0.00  0.00    -0.050 A 
ATOM     10  C   UNL     1      46.219  19.053  20.547  0.00  0.00    +0.099 A 
ATOM     13  C   UNL     1      45.841  20.398  20.423  0.00  0.00    +0.123 A 
ATOM     16  O   UNL     1      44.783  23.021  20.355  0.00  0.00    -0.420 OA
ATOM     17  C   UNL     1      42.194  20.029  19.540  0.00  0.00    +0.431 C 
ATOM     18  O   UNL     1      41.314  19.192  19.601  0.00  0.00    -0.516 OA
ENDROOT
BRANCH  10  11
ATOM     11  O   UNL     1      47.500  18.738  20.869  0.00  0.00    -0.306 OA
ATOM     12  C   UNL     1      48.330  18.241  19.817  0.00  0.00    +0.236 C 
ENDBRANCH  10  11
BRANCH  13  14
ATOM     14  O   UNL     1      46.747  21.386  20.624  0.00  0.00    -0.469 OA
ATOM     15  H   UNL     1      47.267  21.286  21.434  0.00  0.00    +0.390 HD
ENDBRANCH  13  14
TORSDOF 2
ENDMDL
