MODEL 1
REMARK VINA RESULT:      -6.5      0.000      0.000
REMARK  Name = ZINC14611375
REMARK  6 active torsions:
REMARK  status: ('A' for Active; 'I' for Inactive)
REMARK    1  A    between atoms: C1_1  and  O1_2
REMARK    2  A    between atoms: O1_2  and  C2_3
REMARK    3  A    between atoms: C7_8  and  O2_9
REMARK    4  A    between atoms: O2_9  and  C8_10
REMARK    5  A    between atoms: C14_17  and  O6_24
REMARK    6  A    between atoms: C16_19  and  O5_23
REMARK                            x       y       z     vdW  Elec       q    Type
REMARK                         _______ _______ _______ _____ _____    ______ ____
ROOT
ATOM      3  C   UNL     1      48.019  18.299  18.835  0.00  0.00    +0.107 A 
ATOM      4  C   UNL     1      47.938  18.847  20.119  0.00  0.00    +0.016 A 
ATOM      5  C   UNL     1      46.680  19.313  20.468  0.00  0.00    -0.113 A 
ATOM      6  C   UNL     1      45.566  19.239  19.588  0.00  0.00    -0.118 A 
ATOM      7  C   UNL     1      44.670  19.877  20.581  0.00  0.00    -0.103 C 
ATOM      8  C   UNL     1      43.539  18.989  21.110  0.00  0.00    +0.302 C 
ATOM      9  O   UNL     1      42.499  18.928  20.134  0.00  0.00    -0.299 OA
ATOM     10  C   UNL     1      42.023  20.077  19.602  0.00  0.00    +0.214 A 
ATOM     11  C   UNL     1      40.748  20.102  19.060  0.00  0.00    -0.054 A 
ATOM     12  C   UNL     1      40.249  21.268  18.496  0.00  0.00    +0.198 A 
ATOM     15  C   UNL     1      41.017  22.425  18.460  0.00  0.00    -0.074 A 
ATOM     16  C   UNL     1      42.292  22.424  18.997  0.00  0.00    +0.222 A 
ATOM     19  C   UNL     1      42.797  21.252  19.580  0.00  0.00    -0.288 A 
ATOM     20  C   UNL     1      44.136  21.237  20.185  0.00  0.00    +0.425 C 
ATOM     21  O   UNL     1      44.776  22.253  20.356  0.00  0.00    -0.419 OA
ATOM     22  C   UNL     1      45.660  18.691  18.316  0.00  0.00    +0.033 A 
ATOM     23  C   UNL     1      45.872  19.961  21.539  0.00  0.00    +0.157 C 
ATOM     24  C   UNL     1      46.933  18.225  17.977  0.00  0.00    +0.093 A 
ENDROOT
BRANCH   3   2
ATOM      1  C   UNL     1      50.237  18.773  18.121  0.00  0.00    +0.239 C 
ATOM      2  O   UNL     1      49.216  17.816  18.410  0.00  0.00    -0.306 OA
ENDBRANCH   3   2
BRANCH  12  13
ATOM     13  O   UNL     1      38.996  21.278  17.973  0.00  0.00    -0.491 OA
ATOM     14  H   UNL     1      38.343  20.811  18.511  0.00  0.00    +0.404 HD
ENDBRANCH  12  13
BRANCH  16  17
ATOM     17  O   UNL     1      43.050  23.549  18.959  0.00  0.00    -0.479 OA
ATOM     18  H   UNL     1      43.463  23.774  19.805  0.00  0.00    +0.404 HD
ENDBRANCH  16  17
BRANCH  24  25
ATOM     25  O   UNL     1      47.115  17.672  16.749  0.00  0.00    -0.306 OA
ATOM     26  C   UNL     1      46.617  16.348  16.552  0.00  0.00    +0.237 C 
ENDBRANCH  24  25
TORSDOF 4
ENDMDL
MODEL 2
REMARK VINA RESULT:      -6.2      1.729      2.550
REMARK  Name = ZINC14611375
REMARK  6 active torsions:
REMARK  status: ('A' for Active; 'I' for Inactive)
REMARK    1  A    between atoms: C1_1  and  O1_2
REMARK    2  A    between atoms: O1_2  and  C2_3
REMARK    3  A    between atoms: C7_8  and  O2_9
REMARK    4  A    between atoms: O2_9  and  C8_10
REMARK    5  A    between atoms: C14_17  and  O6_24
REMARK    6  A    between atoms: C16_19  and  O5_23
REMARK                            x       y       z     vdW  Elec       q    Type
REMARK                         _______ _______ _______ _____ _____    ______ ____
ROOT
ATOM      3  C   UNL     1      49.416  19.499  18.727  0.00  0.00    +0.107 A 
ATOM      4  C   UNL     1      49.234  20.760  19.302  0.00  0.00    +0.016 A 
ATOM      5  C   UNL     1      48.027  20.920  19.965  0.00  0.00    -0.113 A 
ATOM      6  C   UNL     1      47.057  19.884  20.050  0.00  0.00    -0.118 A 
ATOM      7  C   UNL     1      46.135  20.738  20.837  0.00  0.00    -0.103 C 
ATOM      8  C   UNL     1      45.873  20.270  22.272  0.00  0.00    +0.302 C 
ATOM      9  O   UNL     1      44.937  19.191  22.247  0.00  0.00    -0.299 OA
ATOM     10  C   UNL     1      43.786  19.331  21.549  0.00  0.00    +0.214 A 
ATOM     11  C   UNL     1      42.686  18.558  21.887  0.00  0.00    -0.054 A 
ATOM     12  C   UNL     1      41.501  18.677  21.173  0.00  0.00    +0.198 A 
ATOM     15  C   UNL     1      41.399  19.564  20.109  0.00  0.00    -0.074 A 
ATOM     16  C   UNL     1      42.484  20.347  19.755  0.00  0.00    +0.222 A 
ATOM     19  C   UNL     1      43.680  20.241  20.483  0.00  0.00    -0.288 A 
ATOM     20  C   UNL     1      44.834  21.086  20.146  0.00  0.00    +0.425 C 
ATOM     21  O   UNL     1      44.750  22.007  19.361  0.00  0.00    -0.419 OA
ATOM     22  C   UNL     1      47.252  18.637  19.475  0.00  0.00    +0.033 A 
ATOM     23  C   UNL     1      47.180  21.863  20.749  0.00  0.00    +0.157 C 
ATOM     24  C   UNL     1      48.472  18.488  18.810  0.00  0.00    +0.093 A 
ENDROOT
BRANCH   3   2
ATOM      1  C   UNL     1      51.298  20.386  17.575  0.00  0.00    +0.239 C 
ATOM      2  O   UNL     1      50.574  19.253  18.057  0.00  0.00    -0.306 OA
ENDBRANCH   3   2
BRANCH  12  13
ATOM     13  O   UNL     1      40.431  17.917  21.517  0.00  0.00    -0.491 OA
ATOM     14  H   UNL     1      40.664  17.090  21.962  0.00  0.00    +0.404 HD
ENDBRANCH  12  13
BRANCH  16  17
ATOM     17  O   UNL     1      42.393  21.211  18.714  0.00  0.00    -0.479 OA
ATOM     18  H   UNL     1      42.987  21.972  18.780  0.00  0.00    +0.404 HD
ENDBRANCH  16  17
BRANCH  24  25
ATOM     25  O   UNL     1      48.746  17.296  18.217  0.00  0.00    -0.306 OA
ATOM     26  C   UNL     1      47.888  16.889  17.149  0.00  0.00    +0.237 C 
ENDBRANCH  24  25
TORSDOF 4
ENDMDL
MODEL 3
REMARK VINA RESULT:      -6.2      2.265      3.671
REMARK  Name = ZINC14611375
REMARK  6 active torsions:
REMARK  status: ('A' for Active; 'I' for Inactive)
REMARK    1  A    between atoms: C1_1  and  O1_2
REMARK    2  A    between atoms: O1_2  and  C2_3
REMARK    3  A    between atoms: C7_8  and  O2_9
REMARK    4  A    between atoms: O2_9  and  C8_10
REMARK    5  A    between atoms: C14_17  and  O6_24
REMARK    6  A    between atoms: C16_19  and  O5_23
REMARK                            x       y       z     vdW  Elec       q    Type
REMARK                         _______ _______ _______ _____ _____    ______ ____
ROOT
ATOM      3  C   UNL     1      45.858  15.353  19.114  0.00  0.00    +0.107 A 
ATOM      4  C   UNL     1      45.168  15.350  20.330  0.00  0.00    +0.016 A 
ATOM      5  C   UNL     1      44.629  16.576  20.689  0.00  0.00    -0.113 A 
ATOM      6  C   UNL     1      44.769  17.739  19.883  0.00  0.00    -0.118 A 
ATOM      7  C   UNL     1      43.998  18.563  20.844  0.00  0.00    -0.103 C 
ATOM      8  C   UNL     1      42.663  19.102  20.321  0.00  0.00    +0.302 C 
ATOM      9  O   UNL     1      42.913  20.227  19.476  0.00  0.00    -0.299 OA
ATOM     10  C   UNL     1      43.713  21.223  19.921  0.00  0.00    +0.214 A 
ATOM     11  C   UNL     1      43.589  22.491  19.377  0.00  0.00    -0.054 A 
ATOM     12  C   UNL     1      44.412  23.522  19.809  0.00  0.00    +0.198 A 
ATOM     15  C   UNL     1      45.374  23.301  20.787  0.00  0.00    -0.074 A 
ATOM     16  C   UNL     1      45.515  22.042  21.345  0.00  0.00    +0.222 A 
ATOM     19  C   UNL     1      44.676  21.000  20.921  0.00  0.00    -0.288 A 
ATOM     20  C   UNL     1      44.786  19.664  21.523  0.00  0.00    +0.425 C 
ATOM     21  O   UNL     1      45.467  19.454  22.505  0.00  0.00    -0.419 OA
ATOM     22  C   UNL     1      45.456  17.727  18.678  0.00  0.00    +0.033 A 
ATOM     23  C   UNL     1      43.842  17.309  21.721  0.00  0.00    +0.157 C 
ATOM     24  C   UNL     1      45.995  16.486  18.328  0.00  0.00    +0.093 A 
ENDROOT
BRANCH   3   2
ATOM      1  C   UNL     1      45.529  13.164  18.246  0.00  0.00    +0.239 C 
ATOM      2  O   UNL     1      46.419  14.192  18.684  0.00  0.00    -0.306 OA
ENDBRANCH   3   2
BRANCH  12  13
ATOM     13  O   UNL     1      44.276  24.760  19.271  0.00  0.00    -0.491 OA
ATOM     14  H   UNL     1      44.721  24.870  18.420  0.00  0.00    +0.404 HD
ENDBRANCH  12  13
BRANCH  16  17
ATOM     17  O   UNL     1      46.456  21.818  22.295  0.00  0.00    -0.479 OA
ATOM     18  H   UNL     1      46.484  20.905  22.613  0.00  0.00    +0.404 HD
ENDBRANCH  16  17
BRANCH  24  25
ATOM     25  O   UNL     1      46.684  16.384  17.160  0.00  0.00    -0.306 OA
ATOM     26  C   UNL     1      47.959  17.026  17.102  0.00  0.00    +0.237 C 
ENDBRANCH  24  25
TORSDOF 4
ENDMDL
MODEL 4
REMARK VINA RESULT:      -5.9      2.284      3.309
REMARK  Name = ZINC14611375
REMARK  6 active torsions:
REMARK  status: ('A' for Active; 'I' for Inactive)
REMARK    1  A    between atoms: C1_1  and  O1_2
REMARK    2  A    between atoms: O1_2  and  C2_3
REMARK    3  A    between atoms: C7_8  and  O2_9
REMARK    4  A    between atoms: O2_9  and  C8_10
REMARK    5  A    between atoms: C14_17  and  O6_24
REMARK    6  A    between atoms: C16_19  and  O5_23
REMARK                            x       y       z     vdW  Elec       q    Type
REMARK                         _______ _______ _______ _____ _____    ______ ____
ROOT
ATOM      3  C   UNL     1      47.921  15.435  17.310  0.00  0.00    +0.107 A 
ATOM      4  C   UNL     1      48.481  16.685  17.591  0.00  0.00    +0.016 A 
ATOM      5  C   UNL     1      47.693  17.504  18.386  0.00  0.00    -0.113 A 
ATOM      6  C   UNL     1      46.419  17.100  18.872  0.00  0.00    -0.118 A 
ATOM      7  C   UNL     1      46.219  18.390  19.574  0.00  0.00    -0.103 C 
ATOM      8  C   UNL     1      46.155  18.303  21.102  0.00  0.00    +0.302 C 
ATOM      9  O   UNL     1      44.863  17.832  21.488  0.00  0.00    -0.299 OA
ATOM     10  C   UNL     1      43.762  18.429  20.976  0.00  0.00    +0.214 A 
ATOM     11  C   UNL     1      42.562  18.348  21.664  0.00  0.00    -0.054 A 
ATOM     12  C   UNL     1      41.417  18.941  21.146  0.00  0.00    +0.198 A 
ATOM     15  C   UNL     1      41.455  19.618  19.934  0.00  0.00    -0.074 A 
ATOM     16  C   UNL     1      42.643  19.712  19.231  0.00  0.00    +0.222 A 
ATOM     19  C   UNL     1      43.805  19.126  19.756  0.00  0.00    -0.288 A 
ATOM     20  C   UNL     1      45.085  19.241  19.043  0.00  0.00    +0.425 C 
ATOM     21  O   UNL     1      45.225  19.974  18.086  0.00  0.00    -0.419 OA
ATOM     22  C   UNL     1      45.877  15.856  18.586  0.00  0.00    +0.033 A 
ATOM     23  C   UNL     1      47.597  18.833  19.051  0.00  0.00    +0.157 C 
ATOM     24  C   UNL     1      46.680  15.041  17.785  0.00  0.00    +0.093 A 
ENDROOT
BRANCH   3   2
ATOM      1  C   UNL     1      49.961  14.268  16.949  0.00  0.00    +0.239 C 
ATOM      2  O   UNL     1      48.627  14.568  16.537  0.00  0.00    -0.306 OA
ENDBRANCH   3   2
BRANCH  12  13
ATOM     13  O   UNL     1      40.250  18.858  21.833  0.00  0.00    -0.491 OA
ATOM     14  H   UNL     1      39.640  18.191  21.491  0.00  0.00    +0.404 HD
ENDBRANCH  12  13
BRANCH  16  17
ATOM     17  O   UNL     1      42.684  20.366  18.043  0.00  0.00    -0.479 OA
ATOM     18  H   UNL     1      43.577  20.487  17.692  0.00  0.00    +0.404 HD
ENDBRANCH  16  17
BRANCH  24  25
ATOM     25  O   UNL     1      46.225  13.803  17.456  0.00  0.00    -0.306 OA
ATOM     26  C   UNL     1      45.522  13.080  18.468  0.00  0.00    +0.237 C 
ENDBRANCH  24  25
TORSDOF 4
ENDMDL
MODEL 5
REMARK VINA RESULT:      -5.7      3.169      8.011
REMARK  Name = ZINC14611375
REMARK  6 active torsions:
REMARK  status: ('A' for Active; 'I' for Inactive)
REMARK    1  A    between atoms: C1_1  and  O1_2
REMARK    2  A    between atoms: O1_2  and  C2_3
REMARK    3  A    between atoms: C7_8  and  O2_9
REMARK    4  A    between atoms: O2_9  and  C8_10
REMARK    5  A    between atoms: C14_17  and  O6_24
REMARK    6  A    between atoms: C16_19  and  O5_23
REMARK                            x       y       z     vdW  Elec       q    Type
REMARK                         _______ _______ _______ _____ _____    ______ ____
ROOT
ATOM      3  C   UNL     1      46.276  21.359  20.672  0.00  0.00    +0.107 A 
ATOM      4  C   UNL     1      47.371  21.496  21.531  0.00  0.00    +0.016 A 
ATOM      5  C   UNL     1      48.580  21.080  20.994  0.00  0.00    -0.113 A 
ATOM      6  C   UNL     1      48.691  20.557  19.676  0.00  0.00    -0.118 A 
ATOM      7  C   UNL     1      50.153  20.358  19.822  0.00  0.00    -0.103 C 
ATOM      8  C   UNL     1      51.026  21.216  18.902  0.00  0.00    +0.302 C 
ATOM      9  O   UNL     1      51.026  20.645  17.593  0.00  0.00    -0.299 OA
ATOM     10  C   UNL     1      51.292  19.327  17.446  0.00  0.00    +0.214 A 
ATOM     11  C   UNL     1      51.773  18.859  16.233  0.00  0.00    -0.054 A 
ATOM     12  C   UNL     1      52.037  17.507  16.059  0.00  0.00    +0.198 A 
ATOM     15  C   UNL     1      51.821  16.603  17.091  0.00  0.00    -0.074 A 
ATOM     16  C   UNL     1      51.343  17.047  18.312  0.00  0.00    +0.222 A 
ATOM     19  C   UNL     1      51.087  18.415  18.497  0.00  0.00    -0.288 A 
ATOM     20  C   UNL     1      50.610  18.915  19.794  0.00  0.00    +0.425 C 
ATOM     21  O   UNL     1      50.584  18.213  20.784  0.00  0.00    -0.419 OA
ATOM     22  C   UNL     1      47.596  20.428  18.835  0.00  0.00    +0.033 A 
ATOM     23  C   UNL     1      50.039  20.923  21.248  0.00  0.00    +0.157 C 
ATOM     24  C   UNL     1      46.385  20.851  19.388  0.00  0.00    +0.093 A 
ENDROOT
BRANCH   3   2
ATOM      1  C   UNL     1      44.894  23.116  21.484  0.00  0.00    +0.239 C 
ATOM      2  O   UNL     1      45.051  21.744  21.117  0.00  0.00    -0.306 OA
ENDBRANCH   3   2
BRANCH  12  13
ATOM     13  O   UNL     1      52.511  17.064  14.868  0.00  0.00    -0.491 OA
ATOM     14  H   UNL     1      52.292  16.142  14.676  0.00  0.00    +0.404 HD
ENDBRANCH  12  13
BRANCH  16  17
ATOM     17  O   UNL     1      51.124  16.169  19.321  0.00  0.00    -0.479 OA
ATOM     18  H   UNL     1      50.439  15.513  19.130  0.00  0.00    +0.404 HD
ENDBRANCH  16  17
BRANCH  24  25
ATOM     25  O   UNL     1      45.259  20.759  18.631  0.00  0.00    -0.306 OA
ATOM     26  C   UNL     1      44.669  19.465  18.498  0.00  0.00    +0.237 C 
ENDBRANCH  24  25
TORSDOF 4
ENDMDL
MODEL 6
REMARK VINA RESULT:      -5.7      2.267      7.605
REMARK  Name = ZINC14611375
REMARK  6 active torsions:
REMARK  status: ('A' for Active; 'I' for Inactive)
REMARK    1  A    between atoms: C1_1  and  O1_2
REMARK    2  A    between atoms: O1_2  and  C2_3
REMARK    3  A    between atoms: C7_8  and  O2_9
REMARK    4  A    between atoms: O2_9  and  C8_10
REMARK    5  A    between atoms: C14_17  and  O6_24
REMARK    6  A    between atoms: C16_19  and  O5_23
REMARK                            x       y       z     vdW  Elec       q    Type
REMARK                         _______ _______ _______ _____ _____    ______ ____
ROOT
ATOM      3  C   UNL     1      44.345  20.004  19.019  0.00  0.00    +0.107 A 
ATOM      4  C   UNL     1      44.734  18.667  19.149  0.00  0.00    +0.016 A 
ATOM      5  C   UNL     1      46.092  18.480  19.355  0.00  0.00    -0.113 A 
ATOM      6  C   UNL     1      47.011  19.563  19.427  0.00  0.00    -0.118 A 
ATOM      7  C   UNL     1      48.156  18.646  19.642  0.00  0.00    -0.103 C 
ATOM      8  C   UNL     1      48.844  18.766  21.005  0.00  0.00    +0.302 C 
ATOM      9  O   UNL     1      49.695  19.913  20.999  0.00  0.00    -0.299 OA
ATOM     10  C   UNL     1      50.571  20.080  19.981  0.00  0.00    +0.214 A 
ATOM     11  C   UNL     1      51.700  20.861  20.175  0.00  0.00    -0.054 A 
ATOM     12  C   UNL     1      52.602  21.057  19.138  0.00  0.00    +0.198 A 
ATOM     15  C   UNL     1      52.388  20.480  17.892  0.00  0.00    -0.074 A 
ATOM     16  C   UNL     1      51.269  19.696  17.676  0.00  0.00    +0.222 A 
ATOM     19  C   UNL     1      50.360  19.484  18.725  0.00  0.00    -0.288 A 
ATOM     20  C   UNL     1      49.182  18.629  18.529  0.00  0.00    +0.425 C 
ATOM     21  O   UNL     1      49.039  17.948  17.534  0.00  0.00    -0.419 OA
ATOM     22  C   UNL     1      46.610  20.885  19.298  0.00  0.00    +0.033 A 
ATOM     23  C   UNL     1      47.167  17.470  19.565  0.00  0.00    +0.157 C 
ATOM     24  C   UNL     1      45.240  21.060  19.091  0.00  0.00    +0.093 A 
ENDROOT
BRANCH   3   2
ATOM      1  C   UNL     1      42.094  19.683  19.715  0.00  0.00    +0.239 C 
ATOM      2  O   UNL     1      43.029  20.280  18.816  0.00  0.00    -0.306 OA
ENDBRANCH   3   2
BRANCH  12  13
ATOM     13  O   UNL     1      53.705  21.820  19.343  0.00  0.00    -0.491 OA
ATOM     14  H   UNL     1      53.519  22.681  19.741  0.00  0.00    +0.404 HD
ENDBRANCH  12  13
BRANCH  16  17
ATOM     17  O   UNL     1      51.051  19.136  16.461  0.00  0.00    -0.479 OA
ATOM     18  H   UNL     1      51.762  19.290  15.823  0.00  0.00    +0.404 HD
ENDBRANCH  16  17
BRANCH  24  25
ATOM     25  O   UNL     1      44.761  22.324  18.954  0.00  0.00    -0.306 OA
ATOM     26  C   UNL     1      44.577  23.083  20.151  0.00  0.00    +0.237 C 
ENDBRANCH  24  25
TORSDOF 4
ENDMDL
MODEL 7
REMARK VINA RESULT:      -5.6      3.388      7.910
REMARK  Name = ZINC14611375
REMARK  6 active torsions:
REMARK  status: ('A' for Active; 'I' for Inactive)
REMARK    1  A    between atoms: C1_1  and  O1_2
REMARK    2  A    between atoms: O1_2  and  C2_3
REMARK    3  A    between atoms: C7_8  and  O2_9
REMARK    4  A    between atoms: O2_9  and  C8_10
REMARK    5  A    between atoms: C14_17  and  O6_24
REMARK    6  A    between atoms: C16_19  and  O5_23
REMARK                            x       y       z     vdW  Elec       q    Type
REMARK                         _______ _______ _______ _____ _____    ______ ____
ROOT
ATOM      3  C   UNL     1      43.825  18.171  20.663  0.00  0.00    +0.107 A 
ATOM      4  C   UNL     1      43.883  17.044  21.488  0.00  0.00    +0.016 A 
ATOM      5  C   UNL     1      44.751  16.055  21.053  0.00  0.00    -0.113 A 
ATOM      6  C   UNL     1      45.519  16.181  19.863  0.00  0.00    -0.118 A 
ATOM      7  C   UNL     1      46.138  14.848  20.058  0.00  0.00    -0.103 C 
ATOM      8  C   UNL     1      47.649  14.858  20.310  0.00  0.00    +0.302 C 
ATOM      9  O   UNL     1      48.328  15.050  19.068  0.00  0.00    -0.299 OA
ATOM     10  C   UNL     1      48.003  14.272  18.010  0.00  0.00    +0.214 A 
ATOM     11  C   UNL     1      48.925  14.087  16.992  0.00  0.00    -0.054 A 
ATOM     12  C   UNL     1      48.605  13.304  15.891  0.00  0.00    +0.198 A 
ATOM     15  C   UNL     1      47.359  12.698  15.789  0.00  0.00    -0.074 A 
ATOM     16  C   UNL     1      46.423  12.868  16.794  0.00  0.00    +0.222 A 
ATOM     19  C   UNL     1      46.747  13.648  17.915  0.00  0.00    -0.288 A 
ATOM     20  C   UNL     1      45.781  13.815  19.010  0.00  0.00    +0.425 C 
ATOM     21  O   UNL     1      44.759  13.165  19.072  0.00  0.00    -0.419 OA
ATOM     22  C   UNL     1      45.452  17.306  19.054  0.00  0.00    +0.033 A 
ATOM     23  C   UNL     1      45.310  14.706  21.347  0.00  0.00    +0.157 C 
ATOM     24  C   UNL     1      44.574  18.295  19.503  0.00  0.00    +0.093 A 
ENDROOT
BRANCH   3   2
ATOM      1  C   UNL     1      41.600  18.907  21.062  0.00  0.00    +0.239 C 
ATOM      2  O   UNL     1      42.999  19.191  21.015  0.00  0.00    -0.306 OA
ENDBRANCH   3   2
BRANCH  12  13
ATOM     13  O   UNL     1      49.519  13.128  14.904  0.00  0.00    -0.491 OA
ATOM     14  H   UNL     1      50.131  12.396  15.061  0.00  0.00    +0.404 HD
ENDBRANCH  12  13
BRANCH  16  17
ATOM     17  O   UNL     1      45.203  12.285  16.697  0.00  0.00    -0.479 OA
ATOM     18  H   UNL     1      45.225  11.318  16.719  0.00  0.00    +0.404 HD
ENDBRANCH  16  17
BRANCH  24  25
ATOM     25  O   UNL     1      44.447  19.432  18.769  0.00  0.00    -0.306 OA
ATOM     26  C   UNL     1      45.557  20.332  18.771  0.00  0.00    +0.237 C 
ENDBRANCH  24  25
TORSDOF 4
ENDMDL
MODEL 8
REMARK VINA RESULT:      -5.4      5.376      8.515
REMARK  Name = ZINC14611375
REMARK  6 active torsions:
REMARK  status: ('A' for Active; 'I' for Inactive)
REMARK    1  A    between atoms: C1_1  and  O1_2
REMARK    2  A    between atoms: O1_2  and  C2_3
REMARK    3  A    between atoms: C7_8  and  O2_9
REMARK    4  A    between atoms: O2_9  and  C8_10
REMARK    5  A    between atoms: C14_17  and  O6_24
REMARK    6  A    between atoms: C16_19  and  O5_23
REMARK                            x       y       z     vdW  Elec       q    Type
REMARK                         _______ _______ _______ _____ _____    ______ ____
ROOT
ATOM      3  C   UNL     1      47.660  14.295  16.810  0.00  0.00    +0.107 A 
ATOM      4  C   UNL     1      48.925  13.821  16.447  0.00  0.00    +0.016 A 
ATOM      5  C   UNL     1      49.975  14.655  16.800  0.00  0.00    -0.113 A 
ATOM      6  C   UNL     1      49.777  15.890  17.476  0.00  0.00    -0.118 A 
ATOM      7  C   UNL     1      51.232  16.172  17.499  0.00  0.00    -0.103 C 
ATOM      8  C   UNL     1      51.870  16.209  18.891  0.00  0.00    +0.302 C 
ATOM      9  O   UNL     1      51.565  17.459  19.510  0.00  0.00    -0.299 OA
ATOM     10  C   UNL     1      51.787  18.607  18.828  0.00  0.00    +0.214 A 
ATOM     11  C   UNL     1      51.973  19.789  19.527  0.00  0.00    -0.054 A 
ATOM     12  C   UNL     1      52.186  20.979  18.844  0.00  0.00    +0.198 A 
ATOM     15  C   UNL     1      52.213  21.006  17.455  0.00  0.00    -0.074 A 
ATOM     16  C   UNL     1      52.032  19.837  16.737  0.00  0.00    +0.222 A 
ATOM     19  C   UNL     1      51.829  18.629  17.423  0.00  0.00    -0.288 A 
ATOM     20  C   UNL     1      51.667  17.370  16.683  0.00  0.00    +0.425 C 
ATOM     21  O   UNL     1      51.869  17.295  15.488  0.00  0.00    -0.419 OA
ATOM     22  C   UNL     1      48.516  16.347  17.831  0.00  0.00    +0.033 A 
ATOM     23  C   UNL     1      51.453  14.836  16.767  0.00  0.00    +0.157 C 
ATOM     24  C   UNL     1      47.467  15.498  17.470  0.00  0.00    +0.093 A 
ENDROOT
BRANCH   3   2
ATOM      1  C   UNL     1      46.313  12.407  17.334  0.00  0.00    +0.239 C 
ATOM      2  O   UNL     1      46.572  13.540  16.503  0.00  0.00    -0.306 OA
ENDBRANCH   3   2
BRANCH  12  13
ATOM     13  O   UNL     1      52.371  22.129  19.541  0.00  0.00    -0.491 OA
ATOM     14  H   UNL     1      52.883  22.797  19.067  0.00  0.00    +0.404 HD
ENDBRANCH  12  13
BRANCH  16  17
ATOM     17  O   UNL     1      52.051  19.858  15.382  0.00  0.00    -0.479 OA
ATOM     18  H   UNL     1      51.781  20.703  14.997  0.00  0.00    +0.404 HD
ENDBRANCH  16  17
BRANCH  24  25
ATOM     25  O   UNL     1      46.196  15.869  17.780  0.00  0.00    -0.306 OA
ATOM     26  C   UNL     1      45.845  15.887  19.165  0.00  0.00    +0.237 C 
ENDBRANCH  24  25
TORSDOF 4
ENDMDL
MODEL 9
REMARK VINA RESULT:      -5.2      2.560      6.866
REMARK  Name = ZINC14611375
REMARK  6 active torsions:
REMARK  status: ('A' for Active; 'I' for Inactive)
REMARK    1  A    between atoms: C1_1  and  O1_2
REMARK    2  A    between atoms: O1_2  and  C2_3
REMARK    3  A    between atoms: C7_8  and  O2_9
REMARK    4  A    between atoms: O2_9  and  C8_10
REMARK    5  A    between atoms: C14_17  and  O6_24
REMARK    6  A    between atoms: C16_19  and  O5_23
REMARK                            x       y       z     vdW  Elec       q    Type
REMARK                         _______ _______ _______ _____ _____    ______ ____
ROOT
ATOM      3  C   UNL     1      45.319  21.105  19.145  0.00  0.00    +0.107 A 
ATOM      4  C   UNL     1      46.710  21.057  19.283  0.00  0.00    +0.016 A 
ATOM      5  C   UNL     1      47.275  19.826  18.985  0.00  0.00    -0.113 A 
ATOM      6  C   UNL     1      46.500  18.708  18.573  0.00  0.00    -0.118 A 
ATOM      7  C   UNL     1      47.703  17.850  18.455  0.00  0.00    -0.103 C 
ATOM      8  C   UNL     1      48.032  17.375  17.036  0.00  0.00    +0.302 C 
ATOM      9  O   UNL     1      47.163  16.295  16.693  0.00  0.00    -0.299 OA
ATOM     10  C   UNL     1      47.031  15.255  17.548  0.00  0.00    +0.214 A 
ATOM     11  C   UNL     1      46.619  14.023  17.066  0.00  0.00    -0.054 A 
ATOM     12  C   UNL     1      46.462  12.949  17.931  0.00  0.00    +0.198 A 
ATOM     15  C   UNL     1      46.710  13.091  19.291  0.00  0.00    -0.074 A 
ATOM     16  C   UNL     1      47.124  14.311  19.795  0.00  0.00    +0.222 A 
ATOM     19  C   UNL     1      47.296  15.397  18.922  0.00  0.00    -0.288 A 
ATOM     20  C   UNL     1      47.765  16.694  19.430  0.00  0.00    +0.425 C 
ATOM     21  O   UNL     1      48.179  16.830  20.562  0.00  0.00    -0.419 OA
ATOM     22  C   UNL     1      45.121  18.771  18.439  0.00  0.00    +0.033 A 
ATOM     23  C   UNL     1      48.548  19.056  18.900  0.00  0.00    +0.157 C 
ATOM     24  C   UNL     1      44.563  20.016  18.742  0.00  0.00    +0.093 A 
ENDROOT
BRANCH   3   2
ATOM      1  C   UNL     1      44.652  22.698  20.780  0.00  0.00    +0.239 C 
ATOM      2  O   UNL     1      44.681  22.275  19.416  0.00  0.00    -0.306 OA
ENDBRANCH   3   2
BRANCH  12  13
ATOM     13  O   UNL     1      46.063  11.747  17.444  0.00  0.00    -0.491 OA
ATOM     14  H   UNL     1      45.180  11.757  17.050  0.00  0.00    +0.404 HD
ENDBRANCH  12  13
BRANCH  16  17
ATOM     17  O   UNL     1      47.361  14.458  21.122  0.00  0.00    -0.479 OA
ATOM     18  H   UNL     1      46.990  15.267  21.501  0.00  0.00    +0.404 HD
ENDBRANCH  16  17
BRANCH  24  25
ATOM     25  O   UNL     1      43.216  20.167  18.636  0.00  0.00    -0.306 OA
ATOM     26  C   UNL     1      42.416  19.598  19.675  0.00  0.00    +0.237 C 
ENDBRANCH  24  25
TORSDOF 4
ENDMDL
