MODEL 1
REMARK VINA RESULT:      -5.6      0.000      0.000
REMARK  Name = ZINC06018688
REMARK  10 active torsions:
REMARK  status: ('A' for Active; 'I' for Inactive)
REMARK    1  A    between atoms: C1_1  and  O1_2
REMARK    2  A    between atoms: O1_2  and  C2_3
REMARK    3  A    between atoms: C5_6  and  C9_11
REMARK    4  A    between atoms: C7_8  and  O2_9
REMARK    5  A    between atoms: O2_9  and  C8_10
REMARK    6  A    between atoms: C15_19  and  O7_25
REMARK    7  A    between atoms: C16_20  and  O6_23
REMARK    8  A    between atoms: C17_21  and  O5_22
REMARK    9  A    between atoms: O6_23  and  C18_24
REMARK   10  A    between atoms: O7_25  and  C19_26
REMARK                            x       y       z     vdW  Elec       q    Type
REMARK                         _______ _______ _______ _____ _____    ______ ____
ROOT
ATOM      7  C   UNL     1      47.105  19.062  19.541  0.00  0.00    +0.210 A 
ATOM      8  C   UNL     1      47.000  18.237  20.617  0.00  0.00    -0.145 A 
ATOM      9  C   UNL     1      45.723  17.946  21.151  0.00  0.00    +0.426 A 
ATOM     10  C   UNL     1      44.557  18.566  20.496  0.00  0.00    -0.280 A 
ATOM     11  C   UNL     1      44.777  19.403  19.388  0.00  0.00    +0.203 A 
ATOM     12  C   UNL     1      43.695  19.996  18.757  0.00  0.00    -0.082 A 
ATOM     13  C   UNL     1      42.409  19.763  19.216  0.00  0.00    +0.191 A 
ATOM     16  C   UNL     1      42.187  18.933  20.314  0.00  0.00    +0.007 A 
ATOM     19  C   UNL     1      43.257  18.332  20.957  0.00  0.00    +0.224 A 
ATOM     22  O   UNL     1      45.591  17.210  22.115  0.00  0.00    -0.455 OA
ATOM     23  O   UNL     1      46.037  19.621  18.952  0.00  0.00    -0.219 OA
ENDROOT
BRANCH   7   6
ATOM      3  C   UNL     1      50.967  19.923  17.992  0.00  0.00    +0.131 A 
ATOM      4  C   UNL     1      50.188  20.944  18.519  0.00  0.00    -0.029 A 
ATOM      5  C   UNL     1      48.934  20.669  19.018  0.00  0.00    +0.073 A 
ATOM      6  C   UNL     1      48.447  19.359  19.003  0.00  0.00    -0.074 A 
ATOM     24  C   UNL     1      49.232  18.332  18.471  0.00  0.00    +0.012 A 
ATOM     25  C   UNL     1      50.487  18.616  17.969  0.00  0.00    +0.097 A 
BRANCH   3   2
ATOM      1  C   UNL     1      52.265  20.735  16.172  0.00  0.00    +0.246 C 
ATOM      2  O   UNL     1      52.202  20.200  17.496  0.00  0.00    -0.300 OA
ENDBRANCH   3   2
BRANCH  25  26
ATOM     26  O   UNL     1      51.253  17.619  17.451  0.00  0.00    -0.302 OA
ATOM     27  C   UNL     1      50.613  16.361  17.221  0.00  0.00    +0.242 C 
ENDBRANCH  25  26
ENDBRANCH   7   6
BRANCH  13  14
ATOM     14  O   UNL     1      41.354  20.349  18.591  0.00  0.00    -0.290 OA
ATOM     15  C   UNL     1      41.210  21.762  18.747  0.00  0.00    +0.254 C 
ENDBRANCH  13  14
BRANCH  16  17
ATOM     17  O   UNL     1      40.918  18.714  20.754  0.00  0.00    -0.312 OA
ATOM     18  C   UNL     1      40.449  19.540  21.822  0.00  0.00    +0.228 C 
ENDBRANCH  16  17
BRANCH  19  20
ATOM     20  O   UNL     1      43.045  17.522  22.027  0.00  0.00    -0.464 OA
ATOM     21  H   UNL     1      42.244  17.733  22.527  0.00  0.00    +0.406 HD
ENDBRANCH  19  20
TORSDOF 6
ENDMDL
MODEL 2
REMARK VINA RESULT:      -5.6      2.392      8.136
REMARK  Name = ZINC06018688
REMARK  10 active torsions:
REMARK  status: ('A' for Active; 'I' for Inactive)
REMARK    1  A    between atoms: C1_1  and  O1_2
REMARK    2  A    between atoms: O1_2  and  C2_3
REMARK    3  A    between atoms: C5_6  and  C9_11
REMARK    4  A    between atoms: C7_8  and  O2_9
REMARK    5  A    between atoms: O2_9  and  C8_10
REMARK    6  A    between atoms: C15_19  and  O7_25
REMARK    7  A    between atoms: C16_20  and  O6_23
REMARK    8  A    between atoms: C17_21  and  O5_22
REMARK    9  A    between atoms: O6_23  and  C18_24
REMARK   10  A    between atoms: O7_25  and  C19_26
REMARK                            x       y       z     vdW  Elec       q    Type
REMARK                         _______ _______ _______ _____ _____    ______ ____
ROOT
ATOM      7  C   UNL     1      46.722  19.601  18.678  0.00  0.00    +0.210 A 
ATOM      8  C   UNL     1      46.735  18.301  18.279  0.00  0.00    -0.145 A 
ATOM      9  C   UNL     1      47.972  17.635  18.112  0.00  0.00    +0.426 A 
ATOM     10  C   UNL     1      49.198  18.403  18.385  0.00  0.00    -0.280 A 
ATOM     11  C   UNL     1      49.073  19.743  18.794  0.00  0.00    +0.203 A 
ATOM     12  C   UNL     1      50.213  20.485  19.057  0.00  0.00    -0.082 A 
ATOM     13  C   UNL     1      51.466  19.907  18.918  0.00  0.00    +0.191 A 
ATOM     16  C   UNL     1      51.594  18.580  18.513  0.00  0.00    +0.007 A 
ATOM     19  C   UNL     1      50.464  17.823  18.247  0.00  0.00    +0.224 A 
ATOM     22  O   UNL     1      48.021  16.469  17.756  0.00  0.00    -0.455 OA
ATOM     23  O   UNL     1      47.845  20.291  18.926  0.00  0.00    -0.219 OA
ENDROOT
BRANCH   7   6
ATOM      3  C   UNL     1      42.976  21.552  19.145  0.00  0.00    +0.131 A 
ATOM      4  C   UNL     1      43.021  20.220  18.756  0.00  0.00    -0.029 A 
ATOM      5  C   UNL     1      44.234  19.586  18.598  0.00  0.00    +0.073 A 
ATOM      6  C   UNL     1      45.423  20.280  18.841  0.00  0.00    -0.074 A 
ATOM     24  C   UNL     1      45.377  21.621  19.234  0.00  0.00    +0.012 A 
ATOM     25  C   UNL     1      44.157  22.251  19.385  0.00  0.00    +0.097 A 
BRANCH   3   2
ATOM      1  C   UNL     1      40.635  21.527  18.730  0.00  0.00    +0.246 C 
ATOM      2  O   UNL     1      41.777  22.174  19.293  0.00  0.00    -0.300 OA
ENDBRANCH   3   2
BRANCH  25  26
ATOM     26  O   UNL     1      44.109  23.556  19.767  0.00  0.00    -0.302 OA
ATOM     27  C   UNL     1      44.349  24.537  18.756  0.00  0.00    +0.242 C 
ENDBRANCH  25  26
ENDBRANCH   7   6
BRANCH  13  14
ATOM     14  O   UNL     1      52.578  20.643  19.178  0.00  0.00    -0.290 OA
ATOM     15  C   UNL     1      52.522  21.531  20.295  0.00  0.00    +0.254 C 
ENDBRANCH  13  14
BRANCH  16  17
ATOM     17  O   UNL     1      52.831  18.027  18.380  0.00  0.00    -0.312 OA
ATOM     18  C   UNL     1      53.299  17.217  19.461  0.00  0.00    +0.228 C 
ENDBRANCH  16  17
BRANCH  19  20
ATOM     20  O   UNL     1      50.585  16.529  17.852  0.00  0.00    -0.464 OA
ATOM     21  H   UNL     1      50.019  15.915  18.339  0.00  0.00    +0.406 HD
ENDBRANCH  19  20
TORSDOF 6
ENDMDL
MODEL 3
REMARK VINA RESULT:      -5.5      3.513      6.978
REMARK  Name = ZINC06018688
REMARK  10 active torsions:
REMARK  status: ('A' for Active; 'I' for Inactive)
REMARK    1  A    between atoms: C1_1  and  O1_2
REMARK    2  A    between atoms: O1_2  and  C2_3
REMARK    3  A    between atoms: C5_6  and  C9_11
REMARK    4  A    between atoms: C7_8  and  O2_9
REMARK    5  A    between atoms: O2_9  and  C8_10
REMARK    6  A    between atoms: C15_19  and  O7_25
REMARK    7  A    between atoms: C16_20  and  O6_23
REMARK    8  A    between atoms: C17_21  and  O5_22
REMARK    9  A    between atoms: O6_23  and  C18_24
REMARK   10  A    between atoms: O7_25  and  C19_26
REMARK                            x       y       z     vdW  Elec       q    Type
REMARK                         _______ _______ _______ _____ _____    ______ ____
ROOT
ATOM      7  C   UNL     1      44.763  18.351  19.616  0.00  0.00    +0.210 A 
ATOM      8  C   UNL     1      44.357  17.643  20.704  0.00  0.00    -0.145 A 
ATOM      9  C   UNL     1      44.682  16.269  20.802  0.00  0.00    +0.426 A 
ATOM     10  C   UNL     1      45.456  15.675  19.699  0.00  0.00    -0.280 A 
ATOM     11  C   UNL     1      45.826  16.498  18.620  0.00  0.00    +0.203 A 
ATOM     12  C   UNL     1      46.556  15.960  17.571  0.00  0.00    -0.082 A 
ATOM     13  C   UNL     1      46.915  14.621  17.590  0.00  0.00    +0.191 A 
ATOM     16  C   UNL     1      46.551  13.803  18.657  0.00  0.00    +0.007 A 
ATOM     19  C   UNL     1      45.823  14.324  19.714  0.00  0.00    +0.224 A 
ATOM     22  O   UNL     1      44.335  15.603  21.764  0.00  0.00    -0.455 OA
ATOM     23  O   UNL     1      45.468  17.800  18.617  0.00  0.00    -0.219 OA
ENDROOT
BRANCH   7   6
ATOM      3  C   UNL     1      43.750  22.471  19.365  0.00  0.00    +0.131 A 
ATOM      4  C   UNL     1      45.074  22.091  19.540  0.00  0.00    -0.029 A 
ATOM      5  C   UNL     1      45.406  20.756  19.626  0.00  0.00    +0.073 A 
ATOM      6  C   UNL     1      44.409  19.781  19.528  0.00  0.00    -0.074 A 
ATOM     24  C   UNL     1      43.076  20.164  19.353  0.00  0.00    +0.012 A 
ATOM     25  C   UNL     1      42.751  21.504  19.272  0.00  0.00    +0.097 A 
BRANCH   3   2
ATOM      1  C   UNL     1      44.433  24.674  18.790  0.00  0.00    +0.246 C 
ATOM      2  O   UNL     1      43.428  23.789  19.287  0.00  0.00    -0.300 OA
ENDBRANCH   3   2
BRANCH  25  26
ATOM     26  O   UNL     1      41.455  21.880  19.102  0.00  0.00    -0.302 OA
ATOM     27  C   UNL     1      40.593  20.954  18.435  0.00  0.00    +0.242 C 
ENDBRANCH  25  26
ENDBRANCH   7   6
BRANCH  13  14
ATOM     14  O   UNL     1      47.630  14.103  16.557  0.00  0.00    -0.290 OA
ATOM     15  C   UNL     1      49.037  14.351  16.552  0.00  0.00    +0.254 C 
ENDBRANCH  13  14
BRANCH  16  17
ATOM     17  O   UNL     1      46.911  12.490  18.661  0.00  0.00    -0.312 OA
ATOM     18  C   UNL     1      48.136  12.155  19.316  0.00  0.00    +0.228 C 
ENDBRANCH  16  17
BRANCH  19  20
ATOM     20  O   UNL     1      45.465  13.530  20.757  0.00  0.00    -0.464 OA
ATOM     21  H   UNL     1      46.178  12.965  21.083  0.00  0.00    +0.406 HD
ENDBRANCH  19  20
TORSDOF 6
ENDMDL
MODEL 4
REMARK VINA RESULT:      -5.5      2.344      8.062
REMARK  Name = ZINC06018688
REMARK  10 active torsions:
REMARK  status: ('A' for Active; 'I' for Inactive)
REMARK    1  A    between atoms: C1_1  and  O1_2
REMARK    2  A    between atoms: O1_2  and  C2_3
REMARK    3  A    between atoms: C5_6  and  C9_11
REMARK    4  A    between atoms: C7_8  and  O2_9
REMARK    5  A    between atoms: O2_9  and  C8_10
REMARK    6  A    between atoms: C15_19  and  O7_25
REMARK    7  A    between atoms: C16_20  and  O6_23
REMARK    8  A    between atoms: C17_21  and  O5_22
REMARK    9  A    between atoms: O6_23  and  C18_24
REMARK   10  A    between atoms: O7_25  and  C19_26
REMARK                            x       y       z     vdW  Elec       q    Type
REMARK                         _______ _______ _______ _____ _____    ______ ____
ROOT
ATOM      7  C   UNL     1      46.986  19.919  18.771  0.00  0.00    +0.210 A 
ATOM      8  C   UNL     1      48.026  20.696  19.176  0.00  0.00    -0.145 A 
ATOM      9  C   UNL     1      49.349  20.210  19.054  0.00  0.00    +0.426 A 
ATOM     10  C   UNL     1      49.526  18.863  18.484  0.00  0.00    -0.280 A 
ATOM     11  C   UNL     1      48.382  18.143  18.096  0.00  0.00    +0.203 A 
ATOM     12  C   UNL     1      48.525  16.875  17.557  0.00  0.00    -0.082 A 
ATOM     13  C   UNL     1      49.787  16.323  17.403  0.00  0.00    +0.191 A 
ATOM     16  C   UNL     1      50.924  17.033  17.786  0.00  0.00    +0.007 A 
ATOM     19  C   UNL     1      50.799  18.303  18.326  0.00  0.00    +0.224 A 
ATOM     22  O   UNL     1      50.306  20.879  19.406  0.00  0.00    -0.455 OA
ATOM     23  O   UNL     1      47.159  18.694  18.253  0.00  0.00    -0.219 OA
ENDROOT
BRANCH   7   6
ATOM      3  C   UNL     1      43.030  21.419  19.175  0.00  0.00    +0.131 A 
ATOM      4  C   UNL     1      43.237  20.092  18.823  0.00  0.00    -0.029 A 
ATOM      5  C   UNL     1      44.518  19.603  18.686  0.00  0.00    +0.073 A 
ATOM      6  C   UNL     1      45.613  20.442  18.913  0.00  0.00    -0.074 A 
ATOM     24  C   UNL     1      45.405  21.778  19.268  0.00  0.00    +0.012 A 
ATOM     25  C   UNL     1      44.118  22.261  19.398  0.00  0.00    +0.097 A 
BRANCH   3   2
ATOM      1  C   UNL     1      40.756  21.288  18.495  0.00  0.00    +0.246 C 
ATOM      2  O   UNL     1      41.765  21.897  19.303  0.00  0.00    -0.300 OA
ENDBRANCH   3   2
BRANCH  25  26
ATOM     26  O   UNL     1      43.911  23.561  19.743  0.00  0.00    -0.302 OA
ATOM     27  C   UNL     1      44.435  24.557  18.862  0.00  0.00    +0.242 C 
ENDBRANCH  25  26
ENDBRANCH   7   6
BRANCH  13  14
ATOM     14  O   UNL     1      49.917  15.078  16.873  0.00  0.00    -0.290 OA
ATOM     15  C   UNL     1      48.748  14.258  16.850  0.00  0.00    +0.254 C 
ENDBRANCH  13  14
BRANCH  16  17
ATOM     17  O   UNL     1      52.157  16.479  17.628  0.00  0.00    -0.312 OA
ATOM     18  C   UNL     1      52.693  15.762  18.743  0.00  0.00    +0.228 C 
ENDBRANCH  16  17
BRANCH  19  20
ATOM     20  O   UNL     1      51.905  18.999  18.700  0.00  0.00    -0.464 OA
ATOM     21  H   UNL     1      51.849  19.375  19.589  0.00  0.00    +0.406 HD
ENDBRANCH  19  20
TORSDOF 6
ENDMDL
MODEL 5
REMARK VINA RESULT:      -5.4      2.401      7.902
REMARK  Name = ZINC06018688
REMARK  10 active torsions:
REMARK  status: ('A' for Active; 'I' for Inactive)
REMARK    1  A    between atoms: C1_1  and  O1_2
REMARK    2  A    between atoms: O1_2  and  C2_3
REMARK    3  A    between atoms: C5_6  and  C9_11
REMARK    4  A    between atoms: C7_8  and  O2_9
REMARK    5  A    between atoms: O2_9  and  C8_10
REMARK    6  A    between atoms: C15_19  and  O7_25
REMARK    7  A    between atoms: C16_20  and  O6_23
REMARK    8  A    between atoms: C17_21  and  O5_22
REMARK    9  A    between atoms: O6_23  and  C18_24
REMARK   10  A    between atoms: O7_25  and  C19_26
REMARK                            x       y       z     vdW  Elec       q    Type
REMARK                         _______ _______ _______ _____ _____    ______ ____
ROOT
ATOM      7  C   UNL     1      46.533  18.734  18.210  0.00  0.00    +0.210 A 
ATOM      8  C   UNL     1      46.007  17.649  17.579  0.00  0.00    -0.145 A 
ATOM      9  C   UNL     1      46.862  16.601  17.166  0.00  0.00    +0.426 A 
ATOM     10  C   UNL     1      48.300  16.746  17.449  0.00  0.00    -0.280 A 
ATOM     11  C   UNL     1      48.739  17.909  18.107  0.00  0.00    +0.203 A 
ATOM     12  C   UNL     1      50.088  18.067  18.384  0.00  0.00    -0.082 A 
ATOM     13  C   UNL     1      50.994  17.085  18.013  0.00  0.00    +0.191 A 
ATOM     16  C   UNL     1      50.562  15.932  17.360  0.00  0.00    +0.007 A 
ATOM     19  C   UNL     1      49.218  15.757  17.077  0.00  0.00    +0.224 A 
ATOM     22  O   UNL     1      46.425  15.613  16.599  0.00  0.00    -0.455 OA
ATOM     23  O   UNL     1      47.845  18.856  18.463  0.00  0.00    -0.219 OA
ENDROOT
BRANCH   7   6
ATOM      3  C   UNL     1      43.927  21.867  19.414  0.00  0.00    +0.131 A 
ATOM      4  C   UNL     1      45.280  22.120  19.233  0.00  0.00    -0.029 A 
ATOM      5  C   UNL     1      46.129  21.106  18.848  0.00  0.00    +0.073 A 
ATOM      6  C   UNL     1      45.626  19.820  18.627  0.00  0.00    -0.074 A 
ATOM     24  C   UNL     1      44.264  19.565  18.809  0.00  0.00    +0.012 A 
ATOM     25  C   UNL     1      43.420  20.587  19.201  0.00  0.00    +0.097 A 
BRANCH   3   2
ATOM      1  C   UNL     1      42.996  24.001  18.932  0.00  0.00    +0.246 C 
ATOM      2  O   UNL     1      43.095  22.870  19.799  0.00  0.00    -0.300 OA
ENDBRANCH   3   2
BRANCH  25  26
ATOM     26  O   UNL     1      42.094  20.342  19.379  0.00  0.00    -0.302 OA
ATOM     27  C   UNL     1      41.290  20.239  18.201  0.00  0.00    +0.242 C 
ENDBRANCH  25  26
ENDBRANCH   7   6
BRANCH  13  14
ATOM     14  O   UNL     1      52.314  17.250  18.289  0.00  0.00    -0.290 OA
ATOM     15  C   UNL     1      52.760  18.579  18.561  0.00  0.00    +0.254 C 
ENDBRANCH  13  14
BRANCH  16  17
ATOM     17  O   UNL     1      51.463  14.977  17.002  0.00  0.00    -0.312 OA
ATOM     18  C   UNL     1      51.715  13.935  17.947  0.00  0.00    +0.228 C 
ENDBRANCH  16  17
BRANCH  19  20
ATOM     20  O   UNL     1      48.793  14.634  16.440  0.00  0.00    -0.464 OA
ATOM     21  H   UNL     1      49.022  14.604  15.502  0.00  0.00    +0.406 HD
ENDBRANCH  19  20
TORSDOF 6
ENDMDL
MODEL 6
REMARK VINA RESULT:      -5.4      1.410      8.242
REMARK  Name = ZINC06018688
REMARK  10 active torsions:
REMARK  status: ('A' for Active; 'I' for Inactive)
REMARK    1  A    between atoms: C1_1  and  O1_2
REMARK    2  A    between atoms: O1_2  and  C2_3
REMARK    3  A    between atoms: C5_6  and  C9_11
REMARK    4  A    between atoms: C7_8  and  O2_9
REMARK    5  A    between atoms: O2_9  and  C8_10
REMARK    6  A    between atoms: C15_19  and  O7_25
REMARK    7  A    between atoms: C16_20  and  O6_23
REMARK    8  A    between atoms: C17_21  and  O5_22
REMARK    9  A    between atoms: O6_23  and  C18_24
REMARK   10  A    between atoms: O7_25  and  C19_26
REMARK                            x       y       z     vdW  Elec       q    Type
REMARK                         _______ _______ _______ _____ _____    ______ ____
ROOT
ATOM      7  C   UNL     1      45.931  18.733  18.875  0.00  0.00    +0.210 A 
ATOM      8  C   UNL     1      46.226  17.581  18.215  0.00  0.00    -0.145 A 
ATOM      9  C   UNL     1      47.547  17.355  17.762  0.00  0.00    +0.426 A 
ATOM     10  C   UNL     1      48.547  18.401  18.038  0.00  0.00    -0.280 A 
ATOM     11  C   UNL     1      48.136  19.555  18.729  0.00  0.00    +0.203 A 
ATOM     12  C   UNL     1      49.060  20.552  19.000  0.00  0.00    -0.082 A 
ATOM     13  C   UNL     1      50.377  20.409  18.591  0.00  0.00    +0.191 A 
ATOM     16  C   UNL     1      50.787  19.268  17.905  0.00  0.00    +0.007 A 
ATOM     19  C   UNL     1      49.877  18.261  17.627  0.00  0.00    +0.224 A 
ATOM     22  O   UNL     1      47.847  16.333  17.167  0.00  0.00    -0.455 OA
ATOM     23  O   UNL     1      46.850  19.679  19.122  0.00  0.00    -0.219 OA
ENDROOT
BRANCH   7   6
ATOM      3  C   UNL     1      41.944  19.362  20.203  0.00  0.00    +0.131 A 
ATOM      4  C   UNL     1      42.793  18.535  20.924  0.00  0.00    -0.029 A 
ATOM      5  C   UNL     1      44.085  18.324  20.495  0.00  0.00    +0.073 A 
ATOM      6  C   UNL     1      44.546  18.953  19.334  0.00  0.00    -0.074 A 
ATOM     24  C   UNL     1      43.691  19.787  18.608  0.00  0.00    +0.012 A 
ATOM     25  C   UNL     1      42.395  19.989  19.043  0.00  0.00    +0.097 A 
BRANCH   3   2
ATOM      1  C   UNL     1      40.394  19.295  22.004  0.00  0.00    +0.246 C 
ATOM      2  O   UNL     1      40.669  19.562  20.628  0.00  0.00    -0.300 OA
ENDBRANCH   3   2
BRANCH  25  26
ATOM     26  O   UNL     1      41.561  20.799  18.338  0.00  0.00    -0.302 OA
ATOM     27  C   UNL     1      41.514  22.175  18.724  0.00  0.00    +0.242 C 
ENDBRANCH  25  26
ENDBRANCH   7   6
BRANCH  13  14
ATOM     14  O   UNL     1      51.275  21.393  18.861  0.00  0.00    -0.290 OA
ATOM     15  C   UNL     1      51.916  21.354  20.137  0.00  0.00    +0.254 C 
ENDBRANCH  13  14
BRANCH  16  17
ATOM     17  O   UNL     1      52.083  19.142  17.510  0.00  0.00    -0.312 OA
ATOM     18  C   UNL     1      52.413  19.623  16.205  0.00  0.00    +0.228 C 
ENDBRANCH  16  17
BRANCH  19  20
ATOM     20  O   UNL     1      50.273  17.146  16.959  0.00  0.00    -0.464 OA
ATOM     21  H   UNL     1      51.165  17.204  16.591  0.00  0.00    +0.406 HD
ENDBRANCH  19  20
TORSDOF 6
ENDMDL
MODEL 7
REMARK VINA RESULT:      -5.3      3.258      7.622
REMARK  Name = ZINC06018688
REMARK  10 active torsions:
REMARK  status: ('A' for Active; 'I' for Inactive)
REMARK    1  A    between atoms: C1_1  and  O1_2
REMARK    2  A    between atoms: O1_2  and  C2_3
REMARK    3  A    between atoms: C5_6  and  C9_11
REMARK    4  A    between atoms: C7_8  and  O2_9
REMARK    5  A    between atoms: O2_9  and  C8_10
REMARK    6  A    between atoms: C15_19  and  O7_25
REMARK    7  A    between atoms: C16_20  and  O6_23
REMARK    8  A    between atoms: C17_21  and  O5_22
REMARK    9  A    between atoms: O6_23  and  C18_24
REMARK   10  A    between atoms: O7_25  and  C19_26
REMARK                            x       y       z     vdW  Elec       q    Type
REMARK                         _______ _______ _______ _____ _____    ______ ____
ROOT
ATOM      7  C   UNL     1      47.062  18.123  18.014  0.00  0.00    +0.210 A 
ATOM      8  C   UNL     1      48.411  18.283  18.091  0.00  0.00    -0.145 A 
ATOM      9  C   UNL     1      49.262  17.215  17.721  0.00  0.00    +0.426 A 
ATOM     10  C   UNL     1      48.626  15.968  17.264  0.00  0.00    -0.280 A 
ATOM     11  C   UNL     1      47.222  15.908  17.221  0.00  0.00    +0.203 A 
ATOM     12  C   UNL     1      46.602  14.744  16.794  0.00  0.00    -0.082 A 
ATOM     13  C   UNL     1      47.364  13.651  16.413  0.00  0.00    +0.191 A 
ATOM     16  C   UNL     1      48.755  13.706  16.454  0.00  0.00    +0.007 A 
ATOM     19  C   UNL     1      49.392  14.862  16.877  0.00  0.00    +0.224 A 
ATOM     22  O   UNL     1      50.476  17.324  17.777  0.00  0.00    -0.455 OA
ATOM     23  O   UNL     1      46.494  16.982  17.595  0.00  0.00    -0.219 OA
ENDROOT
BRANCH   7   6
ATOM      3  C   UNL     1      44.558  21.360  19.157  0.00  0.00    +0.131 A 
ATOM      4  C   UNL     1      45.938  21.511  19.174  0.00  0.00    -0.029 A 
ATOM      5  C   UNL     1      46.753  20.462  18.809  0.00  0.00    +0.073 A 
ATOM      6  C   UNL     1      46.191  19.245  18.410  0.00  0.00    -0.074 A 
ATOM     24  C   UNL     1      44.801  19.094  18.393  0.00  0.00    +0.012 A 
ATOM     25  C   UNL     1      43.991  20.149  18.766  0.00  0.00    +0.097 A 
BRANCH   3   2
ATOM      1  C   UNL     1      44.338  23.701  19.505  0.00  0.00    +0.246 C 
ATOM      2  O   UNL     1      43.759  22.396  19.524  0.00  0.00    -0.300 OA
ENDBRANCH   3   2
BRANCH  25  26
ATOM     26  O   UNL     1      42.638  20.005  18.750  0.00  0.00    -0.302 OA
ATOM     27  C   UNL     1      42.041  19.365  19.881  0.00  0.00    +0.242 C 
ENDBRANCH  25  26
ENDBRANCH   7   6
BRANCH  13  14
ATOM     14  O   UNL     1      46.747  12.514  15.996  0.00  0.00    -0.290 OA
ATOM     15  C   UNL     1      45.792  11.930  16.884  0.00  0.00    +0.254 C 
ENDBRANCH  13  14
BRANCH  16  17
ATOM     17  O   UNL     1      49.490  12.624  16.077  0.00  0.00    -0.312 OA
ATOM     18  C   UNL     1      49.872  12.546  14.702  0.00  0.00    +0.228 C 
ENDBRANCH  16  17
BRANCH  19  20
ATOM     20  O   UNL     1      50.749  14.920  16.919  0.00  0.00    -0.464 OA
ATOM     21  H   UNL     1      51.123  14.733  17.790  0.00  0.00    +0.406 HD
ENDBRANCH  19  20
TORSDOF 6
ENDMDL
MODEL 8
REMARK VINA RESULT:      -5.2      2.035      2.992
REMARK  Name = ZINC06018688
REMARK  10 active torsions:
REMARK  status: ('A' for Active; 'I' for Inactive)
REMARK    1  A    between atoms: C1_1  and  O1_2
REMARK    2  A    between atoms: O1_2  and  C2_3
REMARK    3  A    between atoms: C5_6  and  C9_11
REMARK    4  A    between atoms: C7_8  and  O2_9
REMARK    5  A    between atoms: O2_9  and  C8_10
REMARK    6  A    between atoms: C15_19  and  O7_25
REMARK    7  A    between atoms: C16_20  and  O6_23
REMARK    8  A    between atoms: C17_21  and  O5_22
REMARK    9  A    between atoms: O6_23  and  C18_24
REMARK   10  A    between atoms: O7_25  and  C19_26
REMARK                            x       y       z     vdW  Elec       q    Type
REMARK                         _______ _______ _______ _____ _____    ______ ____
ROOT
ATOM      7  C   UNL     1      47.442  19.213  19.135  0.00  0.00    +0.210 A 
ATOM      8  C   UNL     1      46.602  18.156  19.302  0.00  0.00    -0.145 A 
ATOM      9  C   UNL     1      45.212  18.384  19.440  0.00  0.00    +0.426 A 
ATOM     10  C   UNL     1      44.747  19.781  19.392  0.00  0.00    -0.280 A 
ATOM     11  C   UNL     1      45.700  20.800  19.213  0.00  0.00    +0.203 A 
ATOM     12  C   UNL     1      45.284  22.121  19.164  0.00  0.00    -0.082 A 
ATOM     13  C   UNL     1      43.939  22.432  19.291  0.00  0.00    +0.191 A 
ATOM     16  C   UNL     1      42.992  21.425  19.467  0.00  0.00    +0.007 A 
ATOM     19  C   UNL     1      43.390  20.099  19.518  0.00  0.00    +0.224 A 
ATOM     22  O   UNL     1      44.430  17.461  19.591  0.00  0.00    -0.455 OA
ATOM     23  O   UNL     1      47.007  20.481  19.091  0.00  0.00    -0.219 OA
ENDROOT
BRANCH   7   6
ATOM      3  C   UNL     1      51.606  18.463  18.746  0.00  0.00    +0.131 A 
ATOM      4  C   UNL     1      50.716  17.402  18.840  0.00  0.00    -0.029 A 
ATOM      5  C   UNL     1      49.365  17.641  18.971  0.00  0.00    +0.073 A 
ATOM      6  C   UNL     1      48.888  18.955  18.999  0.00  0.00    -0.074 A 
ATOM     24  C   UNL     1      49.785  20.023  18.905  0.00  0.00    +0.012 A 
ATOM     25  C   UNL     1      51.138  19.775  18.779  0.00  0.00    +0.097 A 
BRANCH   3   2
ATOM      1  C   UNL     1      53.430  17.000  19.177  0.00  0.00    +0.246 C 
ATOM      2  O   UNL     1      52.938  18.221  18.623  0.00  0.00    -0.300 OA
ENDBRANCH   3   2
BRANCH  25  26
ATOM     26  O   UNL     1      52.013  20.812  18.686  0.00  0.00    -0.302 OA
ATOM     27  C   UNL     1      52.336  21.498  19.898  0.00  0.00    +0.242 C 
ENDBRANCH  25  26
ENDBRANCH   7   6
BRANCH  13  14
ATOM     14  O   UNL     1      43.541  23.730  19.241  0.00  0.00    -0.290 OA
ATOM     15  C   UNL     1      44.498  24.685  18.780  0.00  0.00    +0.254 C 
ENDBRANCH  13  14
BRANCH  16  17
ATOM     17  O   UNL     1      41.675  21.745  19.590  0.00  0.00    -0.312 OA
ATOM     18  C   UNL     1      40.895  21.758  18.392  0.00  0.00    +0.228 C 
ENDBRANCH  16  17
BRANCH  19  20
ATOM     20  O   UNL     1      42.469  19.114  19.690  0.00  0.00    -0.464 OA
ATOM     21  H   UNL     1      41.730  19.154  19.068  0.00  0.00    +0.406 HD
ENDBRANCH  19  20
TORSDOF 6
ENDMDL
MODEL 9
REMARK VINA RESULT:      -5.1      3.517      8.436
REMARK  Name = ZINC06018688
REMARK  10 active torsions:
REMARK  status: ('A' for Active; 'I' for Inactive)
REMARK    1  A    between atoms: C1_1  and  O1_2
REMARK    2  A    between atoms: O1_2  and  C2_3
REMARK    3  A    between atoms: C5_6  and  C9_11
REMARK    4  A    between atoms: C7_8  and  O2_9
REMARK    5  A    between atoms: O2_9  and  C8_10
REMARK    6  A    between atoms: C15_19  and  O7_25
REMARK    7  A    between atoms: C16_20  and  O6_23
REMARK    8  A    between atoms: C17_21  and  O5_22
REMARK    9  A    between atoms: O6_23  and  C18_24
REMARK   10  A    between atoms: O7_25  and  C19_26
REMARK                            x       y       z     vdW  Elec       q    Type
REMARK                         _______ _______ _______ _____ _____    ______ ____
ROOT
ATOM      7  C   UNL     1      46.833  16.557  18.295  0.00  0.00    +0.210 A 
ATOM      8  C   UNL     1      48.133  16.916  18.474  0.00  0.00    -0.145 A 
ATOM      9  C   UNL     1      49.156  16.166  17.848  0.00  0.00    +0.426 A 
ATOM     10  C   UNL     1      48.746  15.018  17.021  0.00  0.00    -0.280 A 
ATOM     11  C   UNL     1      47.375  14.733  16.901  0.00  0.00    +0.203 A 
ATOM     12  C   UNL     1      46.967  13.658  16.128  0.00  0.00    -0.082 A 
ATOM     13  C   UNL     1      47.906  12.872  15.480  0.00  0.00    +0.191 A 
ATOM     16  C   UNL     1      49.267  13.150  15.596  0.00  0.00    +0.007 A 
ATOM     19  C   UNL     1      49.692  14.222  16.364  0.00  0.00    +0.224 A 
ATOM     22  O   UNL     1      50.332  16.460  17.986  0.00  0.00    -0.455 OA
ATOM     23  O   UNL     1      46.471  15.509  17.539  0.00  0.00    -0.219 OA
ENDROOT
BRANCH   7   6
ATOM      3  C   UNL     1      43.799  18.828  20.217  0.00  0.00    +0.131 A 
ATOM      4  C   UNL     1      44.050  17.523  20.620  0.00  0.00    -0.029 A 
ATOM      5  C   UNL     1      45.029  16.782  19.996  0.00  0.00    +0.073 A 
ATOM      6  C   UNL     1      45.780  17.347  18.961  0.00  0.00    -0.074 A 
ATOM     24  C   UNL     1      45.527  18.661  18.555  0.00  0.00    +0.012 A 
ATOM     25  C   UNL     1      44.540  19.396  19.183  0.00  0.00    +0.097 A 
BRANCH   3   2
ATOM      1  C   UNL     1      41.574  18.903  21.052  0.00  0.00    +0.246 C 
ATOM      2  O   UNL     1      42.828  19.552  20.832  0.00  0.00    -0.300 OA
ENDBRANCH   3   2
BRANCH  25  26
ATOM     26  O   UNL     1      44.292  20.674  18.791  0.00  0.00    -0.302 OA
ATOM     27  C   UNL     1      45.222  21.675  19.212  0.00  0.00    +0.242 C 
ENDBRANCH  25  26
ENDBRANCH   7   6
BRANCH  13  14
ATOM     14  O   UNL     1      47.496  11.819  14.724  0.00  0.00    -0.290 OA
ATOM     15  C   UNL     1      47.001  10.674  15.421  0.00  0.00    +0.254 C 
ENDBRANCH  13  14
BRANCH  16  17
ATOM     17  O   UNL     1      50.178  12.369  14.954  0.00  0.00    -0.312 OA
ATOM     18  C   UNL     1      50.527  12.743  13.620  0.00  0.00    +0.228 C 
ENDBRANCH  16  17
BRANCH  19  20
ATOM     20  O   UNL     1      51.018  14.498  16.480  0.00  0.00    -0.464 OA
ATOM     21  H   UNL     1      51.584  13.714  16.476  0.00  0.00    +0.406 HD
ENDBRANCH  19  20
TORSDOF 6
ENDMDL
