MODEL 1
REMARK VINA RESULT:      -6.6      0.000      0.000
REMARK  Name = ZINC03978133
REMARK  9 active torsions:
REMARK  status: ('A' for Active; 'I' for Inactive)
REMARK    1  A    between atoms: C1_1  and  C2_2
REMARK    2  A    between atoms: C11_14  and  C12_16
REMARK    3  A    between atoms: C17_24  and  C27_38
REMARK    4  A    between atoms: C18_25  and  C24_33
REMARK    5  A    between atoms: C19_27  and  C22_31
REMARK    6  A    between atoms: C19_27  and  C23_32
REMARK    7  A    between atoms: C24_33  and  C25_34
REMARK    8  A    between atoms: C25_34  and  O7_36
REMARK    9  A    between atoms: O7_36  and  C26_37
REMARK                            x       y       z     vdW  Elec       q    Type
REMARK                         _______ _______ _______ _____ _____    ______ ____
ROOT
ATOM      1  C   UNL     1      48.752  17.384  17.012  0.00  0.00    +0.052 C 
ATOM      2  C   UNL     1      48.669  17.900  18.454  0.00  0.00    -0.095 C 
ATOM      3  C   UNL     1      47.823  19.164  18.479  0.00  0.00    +0.031 C 
ATOM      4  C   UNL     1      46.352  18.919  18.189  0.00  0.00    +0.029 C 
ATOM      5  C   UNL     1      45.737  17.806  19.018  0.00  0.00    +0.051 C 
ATOM      6  C   UNL     1      46.640  16.575  18.867  0.00  0.00    -0.145 C 
ATOM      7  C   UNL     1      46.227  15.440  18.357  0.00  0.00    +0.053 C 
ATOM      8  C   UNL     1      45.650  18.085  20.513  0.00  0.00    -0.060 C 
ATOM      9  C   UNL     1      44.980  16.780  21.099  0.00  0.00    +0.033 C 
ATOM     10  C   UNL     1      44.658  19.158  20.887  0.00  0.00    +0.039 C 
ATOM     16  C   UNL     1      45.162  20.548  21.190  0.00  0.00    -0.089 C 
ATOM     17  C   UNL     1      44.384  21.083  22.423  0.00  0.00    +0.061 C 
ATOM     18  C   UNL     1      44.840  21.492  20.021  0.00  0.00    +0.062 C 
ATOM     19  C   UNL     1      46.623  20.639  21.509  0.00  0.00    +0.378 C 
ATOM     20  C   UNL     1      47.567  19.487  21.534  0.00  0.00    +0.031 C 
ATOM     21  O   UNL     1      47.070  21.760  21.796  0.00  0.00    -0.467 OA
ATOM     22  C   UNL     1      46.979  18.132  21.216  0.00  0.00    +0.229 C 
ATOM     23  O   UNL     1      47.990  17.289  20.698  0.00  0.00    -0.372 OA
ATOM     24  C   UNL     1      50.089  18.190  18.950  0.00  0.00    +0.286 C 
ATOM     30  O   UNL     1      50.848  16.974  18.970  0.00  0.00    -0.368 OA
ATOM     31  C   UNL     1      50.305  15.923  19.622  0.00  0.00    +0.497 C 
ATOM     32  O   UNL     1      50.940  15.304  20.444  0.00  0.00    -0.445 OA
ATOM     33  C   UNL     1      48.873  15.550  19.292  0.00  0.00    +0.086 C 
ATOM     34  C   UNL     1      48.044  16.834  19.364  0.00  0.00    +0.183 C 
ENDROOT
BRANCH  24  25
ATOM     25  C   UNL     1      50.766  19.166  18.022  0.00  0.00    -0.185 A 
ATOM     26  C   UNL     1      50.703  20.576  18.092  0.00  0.00    -0.049 A 
ATOM     27  C   UNL     1      51.449  21.051  17.078  0.00  0.00    +0.170 A 
ATOM     28  O   UNL     1      51.958  20.008  16.402  0.00  0.00    -0.173 OA
ATOM     29  C   UNL     1      51.552  18.862  16.974  0.00  0.00    +0.201 A 
ENDBRANCH  24  25
BRANCH  10  11
ATOM     11  C   UNL     1      43.508  19.245  19.878  0.00  0.00    +0.111 C 
BRANCH  11  12
ATOM     12  C   UNL     1      42.194  19.113  20.603  0.00  0.00    +0.454 C 
ATOM     15  O   UNL     1      42.134  18.493  21.639  0.00  0.00    -0.491 OA
BRANCH  12  13
ATOM     13  O   UNL     1      41.089  19.685  20.099  0.00  0.00    -0.354 OA
ATOM     14  C   UNL     1      41.273  20.647  19.058  0.00  0.00    +0.257 C 
ENDBRANCH  12  13
ENDBRANCH  11  12
ENDBRANCH  10  11
TORSDOF 4
ENDMDL
MODEL 2
REMARK VINA RESULT:      -6.0      2.588      4.094
REMARK  Name = ZINC03978133
REMARK  9 active torsions:
REMARK  status: ('A' for Active; 'I' for Inactive)
REMARK    1  A    between atoms: C1_1  and  C2_2
REMARK    2  A    between atoms: C11_14  and  C12_16
REMARK    3  A    between atoms: C17_24  and  C27_38
REMARK    4  A    between atoms: C18_25  and  C24_33
REMARK    5  A    between atoms: C19_27  and  C22_31
REMARK    6  A    between atoms: C19_27  and  C23_32
REMARK    7  A    between atoms: C24_33  and  C25_34
REMARK    8  A    between atoms: C25_34  and  O7_36
REMARK    9  A    between atoms: O7_36  and  C26_37
REMARK                            x       y       z     vdW  Elec       q    Type
REMARK                         _______ _______ _______ _____ _____    ______ ____
ROOT
ATOM      1  C   UNL     1      51.254  16.972  16.496  0.00  0.00    +0.052 C 
ATOM      2  C   UNL     1      50.752  17.181  17.930  0.00  0.00    -0.095 C 
ATOM      3  C   UNL     1      49.292  17.609  17.886  0.00  0.00    +0.031 C 
ATOM      4  C   UNL     1      48.350  16.514  17.420  0.00  0.00    +0.029 C 
ATOM      5  C   UNL     1      48.534  15.192  18.146  0.00  0.00    +0.051 C 
ATOM      6  C   UNL     1      50.024  14.837  18.072  0.00  0.00    -0.145 C 
ATOM      7  C   UNL     1      50.476  13.753  17.492  0.00  0.00    +0.053 C 
ATOM      8  C   UNL     1      48.176  15.212  19.627  0.00  0.00    -0.060 C 
ATOM      9  C   UNL     1      48.460  13.732  20.100  0.00  0.00    +0.033 C 
ATOM     10  C   UNL     1      46.703  15.369  19.907  0.00  0.00    +0.039 C 
ATOM     16  C   UNL     1      46.172  16.726  20.299  0.00  0.00    -0.089 C 
ATOM     17  C   UNL     1      45.143  16.527  21.445  0.00  0.00    +0.061 C 
ATOM     18  C   UNL     1      45.407  17.353  19.122  0.00  0.00    +0.062 C 
ATOM     19  C   UNL     1      47.204  17.696  20.788  0.00  0.00    +0.378 C 
ATOM     20  C   UNL     1      48.662  17.411  20.896  0.00  0.00    +0.031 C 
ATOM     21  O   UNL     1      46.804  18.812  21.151  0.00  0.00    -0.467 OA
ATOM     22  C   UNL     1      49.107  16.028  20.481  0.00  0.00    +0.229 C 
ATOM     23  O   UNL     1      50.459  16.074  20.064  0.00  0.00    -0.372 OA
ATOM     24  C   UNL     1      51.612  18.260  18.595  0.00  0.00    +0.286 C 
ATOM     30  O   UNL     1      52.970  17.809  18.675  0.00  0.00    -0.368 OA
ATOM     31  C   UNL     1      53.183  16.599  19.235  0.00  0.00    +0.497 C 
ATOM     32  O   UNL     1      54.004  16.452  20.111  0.00  0.00    -0.445 OA
ATOM     33  C   UNL     1      52.354  15.433  18.732  0.00  0.00    +0.086 C 
ATOM     34  C   UNL     1      50.892  15.883  18.736  0.00  0.00    +0.183 C 
ENDROOT
BRANCH  24  25
ATOM     25  C   UNL     1      51.570  19.525  17.776  0.00  0.00    -0.185 A 
ATOM     26  C   UNL     1      52.246  19.760  16.557  0.00  0.00    -0.049 A 
ATOM     27  C   UNL     1      51.931  21.010  16.171  0.00  0.00    +0.170 A 
ATOM     28  O   UNL     1      51.104  21.541  17.087  0.00  0.00    -0.173 OA
ATOM     29  C   UNL     1      50.877  20.642  18.059  0.00  0.00    +0.201 A 
ENDBRANCH  24  25
BRANCH  10  11
ATOM     11  C   UNL     1      45.845  14.798  18.773  0.00  0.00    +0.111 C 
BRANCH  11  12
ATOM     12  C   UNL     1      45.230  13.495  19.216  0.00  0.00    +0.454 C 
ATOM     15  O   UNL     1      45.020  13.294  20.389  0.00  0.00    -0.491 OA
BRANCH  12  13
ATOM     13  O   UNL     1      44.914  12.559  18.308  0.00  0.00    -0.354 OA
ATOM     14  C   UNL     1      45.891  12.272  17.304  0.00  0.00    +0.257 C 
ENDBRANCH  12  13
ENDBRANCH  11  12
ENDBRANCH  10  11
TORSDOF 4
ENDMDL
MODEL 3
REMARK VINA RESULT:      -5.5      2.595      6.930
REMARK  Name = ZINC03978133
REMARK  9 active torsions:
REMARK  status: ('A' for Active; 'I' for Inactive)
REMARK    1  A    between atoms: C1_1  and  C2_2
REMARK    2  A    between atoms: C11_14  and  C12_16
REMARK    3  A    between atoms: C17_24  and  C27_38
REMARK    4  A    between atoms: C18_25  and  C24_33
REMARK    5  A    between atoms: C19_27  and  C22_31
REMARK    6  A    between atoms: C19_27  and  C23_32
REMARK    7  A    between atoms: C24_33  and  C25_34
REMARK    8  A    between atoms: C25_34  and  O7_36
REMARK    9  A    between atoms: O7_36  and  C26_37
REMARK                            x       y       z     vdW  Elec       q    Type
REMARK                         _______ _______ _______ _____ _____    ______ ____
ROOT
ATOM      1  C   UNL     1      46.252  15.561  17.245  0.00  0.00    +0.052 C 
ATOM      2  C   UNL     1      47.094  15.594  18.527  0.00  0.00    -0.095 C 
ATOM      3  C   UNL     1      48.564  15.472  18.155  0.00  0.00    +0.031 C 
ATOM      4  C   UNL     1      49.113  16.689  17.433  0.00  0.00    +0.029 C 
ATOM      5  C   UNL     1      48.809  18.006  18.125  0.00  0.00    +0.051 C 
ATOM      6  C   UNL     1      47.298  18.040  18.392  0.00  0.00    -0.145 C 
ATOM      7  C   UNL     1      46.501  18.950  17.890  0.00  0.00    +0.053 C 
ATOM      8  C   UNL     1      49.482  18.198  19.478  0.00  0.00    -0.060 C 
ATOM      9  C   UNL     1      48.991  19.626  19.941  0.00  0.00    +0.033 C 
ATOM     10  C   UNL     1      50.978  18.373  19.407  0.00  0.00    +0.039 C 
ATOM     16  C   UNL     1      51.869  17.195  19.719  0.00  0.00    -0.089 C 
ATOM     17  C   UNL     1      53.058  17.707  20.578  0.00  0.00    +0.061 C 
ATOM     18  C   UNL     1      52.472  16.632  18.422  0.00  0.00    +0.062 C 
ATOM     19  C   UNL     1      51.212  16.085  20.480  0.00  0.00    +0.378 C 
ATOM     20  C   UNL     1      49.789  16.074  20.919  0.00  0.00    +0.031 C 
ATOM     21  O   UNL     1      51.920  15.113  20.784  0.00  0.00    -0.467 OA
ATOM     22  C   UNL     1      48.968  17.291  20.562  0.00  0.00    +0.229 C 
ATOM     23  O   UNL     1      47.602  16.930  20.481  0.00  0.00    -0.372 OA
ATOM     24  C   UNL     1      46.664  14.428  19.422  0.00  0.00    +0.286 C 
ATOM     30  O   UNL     1      45.292  14.596  19.803  0.00  0.00    -0.368 OA
ATOM     31  C   UNL     1      44.947  15.783  20.345  0.00  0.00    +0.497 C 
ATOM     32  O   UNL     1      44.330  15.840  21.384  0.00  0.00    -0.445 OA
ATOM     33  C   UNL     1      45.364  17.043  19.610  0.00  0.00    +0.086 C 
ATOM     34  C   UNL     1      46.853  16.905  19.286  0.00  0.00    +0.183 C 
ENDROOT
BRANCH  24  25
ATOM     25  C   UNL     1      46.800  13.128  18.670  0.00  0.00    -0.185 A 
ATOM     26  C   UNL     1      47.937  12.290  18.637  0.00  0.00    -0.049 A 
ATOM     27  C   UNL     1      47.627  11.242  17.853  0.00  0.00    +0.170 A 
ATOM     28  O   UNL     1      46.368  11.400  17.411  0.00  0.00    -0.173 OA
ATOM     29  C   UNL     1      45.860  12.540  17.909  0.00  0.00    +0.201 A 
ENDBRANCH  24  25
BRANCH  10  11
ATOM     11  C   UNL     1      51.414  19.000  18.078  0.00  0.00    +0.111 C 
BRANCH  11  12
ATOM     12  C   UNL     1      51.783  20.444  18.302  0.00  0.00    +0.454 C 
ATOM     15  O   UNL     1      51.162  21.319  17.747  0.00  0.00    -0.491 OA
BRANCH  12  13
ATOM     13  O   UNL     1      52.801  20.757  19.119  0.00  0.00    -0.354 OA
ATOM     14  C   UNL     1      52.533  21.707  20.154  0.00  0.00    +0.257 C 
ENDBRANCH  12  13
ENDBRANCH  11  12
ENDBRANCH  10  11
TORSDOF 4
ENDMDL
MODEL 4
REMARK VINA RESULT:      -5.5      2.917      6.468
REMARK  Name = ZINC03978133
REMARK  9 active torsions:
REMARK  status: ('A' for Active; 'I' for Inactive)
REMARK    1  A    between atoms: C1_1  and  C2_2
REMARK    2  A    between atoms: C11_14  and  C12_16
REMARK    3  A    between atoms: C17_24  and  C27_38
REMARK    4  A    between atoms: C18_25  and  C24_33
REMARK    5  A    between atoms: C19_27  and  C22_31
REMARK    6  A    between atoms: C19_27  and  C23_32
REMARK    7  A    between atoms: C24_33  and  C25_34
REMARK    8  A    between atoms: C25_34  and  O7_36
REMARK    9  A    between atoms: O7_36  and  C26_37
REMARK                            x       y       z     vdW  Elec       q    Type
REMARK                         _______ _______ _______ _____ _____    ______ ____
ROOT
ATOM      1  C   UNL     1      46.519  15.529  16.326  0.00  0.00    +0.052 C 
ATOM      2  C   UNL     1      47.453  15.238  17.508  0.00  0.00    -0.095 C 
ATOM      3  C   UNL     1      48.829  15.809  17.204  0.00  0.00    +0.031 C 
ATOM      4  C   UNL     1      48.869  17.327  17.188  0.00  0.00    +0.029 C 
ATOM      5  C   UNL     1      48.243  17.973  18.412  0.00  0.00    +0.051 C 
ATOM      6  C   UNL     1      46.845  17.365  18.580  0.00  0.00    -0.145 C 
ATOM      7  C   UNL     1      45.743  18.074  18.536  0.00  0.00    +0.053 C 
ATOM      8  C   UNL     1      48.975  17.720  19.723  0.00  0.00    -0.060 C 
ATOM      9  C   UNL     1      48.111  18.502  20.790  0.00  0.00    +0.033 C 
ATOM     10  C   UNL     1      50.316  18.402  19.826  0.00  0.00    +0.039 C 
ATOM     16  C   UNL     1      51.568  17.596  19.579  0.00  0.00    -0.089 C 
ATOM     17  C   UNL     1      52.623  18.011  20.641  0.00  0.00    +0.061 C 
ATOM     18  C   UNL     1      52.162  17.950  18.206  0.00  0.00    +0.062 C 
ATOM     19  C   UNL     1      51.397  16.111  19.675  0.00  0.00    +0.378 C 
ATOM     20  C   UNL     1      50.115  15.415  19.977  0.00  0.00    +0.031 C 
ATOM     21  O   UNL     1      52.410  15.414  19.511  0.00  0.00    -0.467 OA
ATOM     22  C   UNL     1      48.911  16.298  20.207  0.00  0.00    +0.229 C 
ATOM     23  O   UNL     1      47.734  15.581  19.889  0.00  0.00    -0.372 OA
ATOM     24  C   UNL     1      47.529  13.721  17.706  0.00  0.00    +0.286 C 
ATOM     30  O   UNL     1      46.231  13.216  18.047  0.00  0.00    -0.368 OA
ATOM     31  C   UNL     1      45.591  13.813  19.074  0.00  0.00    +0.497 C 
ATOM     32  O   UNL     1      45.116  13.162  19.977  0.00  0.00    -0.445 OA
ATOM     33  C   UNL     1      45.492  15.326  19.061  0.00  0.00    +0.086 C 
ATOM     34  C   UNL     1      46.897  15.869  18.792  0.00  0.00    +0.183 C 
ENDROOT
BRANCH  24  25
ATOM     25  C   UNL     1      47.984  13.060  16.430  0.00  0.00    -0.185 A 
ATOM     26  C   UNL     1      49.263  13.163  15.839  0.00  0.00    -0.049 A 
ATOM     27  C   UNL     1      49.237  12.419  14.719  0.00  0.00    +0.170 A 
ATOM     28  O   UNL     1      48.015  11.872  14.602  0.00  0.00    -0.173 OA
ATOM     29  C   UNL     1      47.253  12.253  15.640  0.00  0.00    +0.201 A 
ENDBRANCH  24  25
BRANCH  10  11
ATOM     11  C   UNL     1      50.367  19.685  18.989  0.00  0.00    +0.111 C 
BRANCH  11  12
ATOM     12  C   UNL     1      50.871  20.820  19.842  0.00  0.00    +0.454 C 
ATOM     15  O   UNL     1      50.402  21.005  20.941  0.00  0.00    -0.491 OA
BRANCH  12  13
ATOM     13  O   UNL     1      51.842  21.625  19.383  0.00  0.00    -0.354 OA
ATOM     14  C   UNL     1      52.844  22.032  20.318  0.00  0.00    +0.257 C 
ENDBRANCH  12  13
ENDBRANCH  11  12
ENDBRANCH  10  11
TORSDOF 4
ENDMDL
MODEL 5
REMARK VINA RESULT:      -5.5      2.549      4.863
REMARK  Name = ZINC03978133
REMARK  9 active torsions:
REMARK  status: ('A' for Active; 'I' for Inactive)
REMARK    1  A    between atoms: C1_1  and  C2_2
REMARK    2  A    between atoms: C11_14  and  C12_16
REMARK    3  A    between atoms: C17_24  and  C27_38
REMARK    4  A    between atoms: C18_25  and  C24_33
REMARK    5  A    between atoms: C19_27  and  C22_31
REMARK    6  A    between atoms: C19_27  and  C23_32
REMARK    7  A    between atoms: C24_33  and  C25_34
REMARK    8  A    between atoms: C25_34  and  O7_36
REMARK    9  A    between atoms: O7_36  and  C26_37
REMARK                            x       y       z     vdW  Elec       q    Type
REMARK                         _______ _______ _______ _____ _____    ______ ____
ROOT
ATOM      1  C   UNL     1      47.483  14.636  16.676  0.00  0.00    +0.052 C 
ATOM      2  C   UNL     1      48.570  15.015  17.690  0.00  0.00    -0.095 C 
ATOM      3  C   UNL     1      49.224  16.316  17.250  0.00  0.00    +0.031 C 
ATOM      4  C   UNL     1      48.312  17.525  17.357  0.00  0.00    +0.029 C 
ATOM      5  C   UNL     1      47.625  17.661  18.705  0.00  0.00    +0.051 C 
ATOM      6  C   UNL     1      46.955  16.316  19.011  0.00  0.00    -0.145 C 
ATOM      7  C   UNL     1      45.662  16.179  19.178  0.00  0.00    +0.053 C 
ATOM      8  C   UNL     1      48.553  17.947  19.878  0.00  0.00    -0.060 C 
ATOM      9  C   UNL     1      47.575  18.037  21.116  0.00  0.00    +0.033 C 
ATOM     10  C   UNL     1      49.177  19.320  19.854  0.00  0.00    +0.039 C 
ATOM     16  C   UNL     1      50.600  19.470  19.372  0.00  0.00    -0.089 C 
ATOM     17  C   UNL     1      51.323  20.474  20.311  0.00  0.00    +0.061 C 
ATOM     18  C   UNL     1      50.617  20.090  17.966  0.00  0.00    +0.062 C 
ATOM     19  C   UNL     1      51.405  18.206  19.363  0.00  0.00    +0.378 C 
ATOM     20  C   UNL     1      50.899  16.867  19.778  0.00  0.00    +0.031 C 
ATOM     21  O   UNL     1      52.589  18.293  19.005  0.00  0.00    -0.467 OA
ATOM     22  C   UNL     1      49.463  16.808  20.245  0.00  0.00    +0.229 C 
ATOM     23  O   UNL     1      48.953  15.506  20.031  0.00  0.00    -0.372 OA
ATOM     24  C   UNL     1      49.600  13.883  17.746  0.00  0.00    +0.286 C 
ATOM     30  O   UNL     1      48.971  12.685  18.217  0.00  0.00    -0.368 OA
ATOM     31  C   UNL     1      48.272  12.770  19.369  0.00  0.00    +0.497 C 
ATOM     32  O   UNL     1      48.455  11.984  20.270  0.00  0.00    -0.445 OA
ATOM     33  C   UNL     1      47.256  13.888  19.498  0.00  0.00    +0.086 C 
ATOM     34  C   UNL     1      47.956  15.185  19.086  0.00  0.00    +0.183 C 
ENDROOT
BRANCH  24  25
ATOM     25  C   UNL     1      50.156  13.628  16.369  0.00  0.00    -0.185 A 
ATOM     26  C   UNL     1      49.547  12.869  15.343  0.00  0.00    -0.049 A 
ATOM     27  C   UNL     1      50.380  12.902  14.287  0.00  0.00    +0.170 A 
ATOM     28  O   UNL     1      51.455  13.637  14.617  0.00  0.00    -0.173 OA
ATOM     29  C   UNL     1      51.321  14.085  15.877  0.00  0.00    +0.201 A 
ENDBRANCH  24  25
BRANCH  10  11
ATOM     11  C   UNL     1      48.288  20.336  19.131  0.00  0.00    +0.111 C 
BRANCH  11  12
ATOM     12  C   UNL     1      47.529  21.151  20.146  0.00  0.00    +0.454 C 
ATOM     15  O   UNL     1      48.082  21.532  21.151  0.00  0.00    -0.491 OA
BRANCH  12  13
ATOM     13  O   UNL     1      46.239  21.457  19.933  0.00  0.00    -0.354 OA
ATOM     14  C   UNL     1      45.631  20.920  18.756  0.00  0.00    +0.257 C 
ENDBRANCH  12  13
ENDBRANCH  11  12
ENDBRANCH  10  11
TORSDOF 4
ENDMDL
MODEL 6
REMARK VINA RESULT:      -5.3      2.595      4.677
REMARK  Name = ZINC03978133
REMARK  9 active torsions:
REMARK  status: ('A' for Active; 'I' for Inactive)
REMARK    1  A    between atoms: C1_1  and  C2_2
REMARK    2  A    between atoms: C11_14  and  C12_16
REMARK    3  A    between atoms: C17_24  and  C27_38
REMARK    4  A    between atoms: C18_25  and  C24_33
REMARK    5  A    between atoms: C19_27  and  C22_31
REMARK    6  A    between atoms: C19_27  and  C23_32
REMARK    7  A    between atoms: C24_33  and  C25_34
REMARK    8  A    between atoms: C25_34  and  O7_36
REMARK    9  A    between atoms: O7_36  and  C26_37
REMARK                            x       y       z     vdW  Elec       q    Type
REMARK                         _______ _______ _______ _____ _____    ______ ____
ROOT
ATOM      1  C   UNL     1      45.542  13.220  19.155  0.00  0.00    +0.052 C 
ATOM      2  C   UNL     1      46.748  14.151  19.331  0.00  0.00    -0.095 C 
ATOM      3  C   UNL     1      46.522  15.413  18.512  0.00  0.00    +0.031 C 
ATOM      4  C   UNL     1      45.410  16.297  19.048  0.00  0.00    +0.029 C 
ATOM      5  C   UNL     1      45.522  16.595  20.533  0.00  0.00    +0.051 C 
ATOM      6  C   UNL     1      45.684  15.251  21.255  0.00  0.00    -0.145 C 
ATOM      7  C   UNL     1      44.830  14.807  22.145  0.00  0.00    +0.053 C 
ATOM      8  C   UNL     1      46.724  17.439  20.936  0.00  0.00    -0.060 C 
ATOM      9  C   UNL     1      46.572  17.583  22.502  0.00  0.00    +0.033 C 
ATOM     10  C   UNL     1      46.660  18.871  20.468  0.00  0.00    +0.039 C 
ATOM     16  C   UNL     1      47.446  19.279  19.246  0.00  0.00    -0.089 C 
ATOM     17  C   UNL     1      48.094  20.662  19.530  0.00  0.00    +0.061 C 
ATOM     18  C   UNL     1      46.500  19.473  18.050  0.00  0.00    +0.062 C 
ATOM     19  C   UNL     1      48.547  18.341  18.856  0.00  0.00    +0.378 C 
ATOM     20  C   UNL     1      48.889  17.079  19.571  0.00  0.00    +0.031 C 
ATOM     21  O   UNL     1      49.238  18.657  17.876  0.00  0.00    -0.467 OA
ATOM     22  C   UNL     1      48.050  16.747  20.783  0.00  0.00    +0.229 C 
ATOM     23  O   UNL     1      48.051  15.347  20.986  0.00  0.00    -0.372 OA
ATOM     24  C   UNL     1      48.005  13.416  18.856  0.00  0.00    +0.286 C 
ATOM     30  O   UNL     1      48.226  12.263  19.679  0.00  0.00    -0.368 OA
ATOM     31  C   UNL     1      48.247  12.458  21.015  0.00  0.00    +0.497 C 
ATOM     32  O   UNL     1      49.153  12.031  21.694  0.00  0.00    -0.445 OA
ATOM     33  C   UNL     1      47.102  13.235  21.633  0.00  0.00    +0.086 C 
ATOM     34  C   UNL     1      46.927  14.514  20.812  0.00  0.00    +0.183 C 
ENDROOT
BRANCH  24  25
ATOM     25  C   UNL     1      47.824  12.963  17.430  0.00  0.00    -0.185 A 
ATOM     26  C   UNL     1      47.973  13.756  16.269  0.00  0.00    -0.049 A 
ATOM     27  C   UNL     1      47.723  12.957  15.216  0.00  0.00    +0.170 A 
ATOM     28  O   UNL     1      47.433  11.728  15.675  0.00  0.00    -0.173 OA
ATOM     29  C   UNL     1      47.499  11.724  17.017  0.00  0.00    +0.201 A 
ENDBRANCH  24  25
BRANCH  10  11
ATOM     11  C   UNL     1      45.214  19.359  20.326  0.00  0.00    +0.111 C 
BRANCH  11  12
ATOM     12  C   UNL     1      44.924  20.387  21.389  0.00  0.00    +0.454 C 
ATOM     15  O   UNL     1      44.186  20.115  22.307  0.00  0.00    -0.491 OA
BRANCH  12  13
ATOM     13  O   UNL     1      45.487  21.604  21.319  0.00  0.00    -0.354 OA
ATOM     14  C   UNL     1      44.834  22.574  20.496  0.00  0.00    +0.257 C 
ENDBRANCH  12  13
ENDBRANCH  11  12
ENDBRANCH  10  11
TORSDOF 4
ENDMDL
MODEL 7
REMARK VINA RESULT:      -5.3      2.595      4.164
REMARK  Name = ZINC03978133
REMARK  9 active torsions:
REMARK  status: ('A' for Active; 'I' for Inactive)
REMARK    1  A    between atoms: C1_1  and  C2_2
REMARK    2  A    between atoms: C11_14  and  C12_16
REMARK    3  A    between atoms: C17_24  and  C27_38
REMARK    4  A    between atoms: C18_25  and  C24_33
REMARK    5  A    between atoms: C19_27  and  C22_31
REMARK    6  A    between atoms: C19_27  and  C23_32
REMARK    7  A    between atoms: C24_33  and  C25_34
REMARK    8  A    between atoms: C25_34  and  O7_36
REMARK    9  A    between atoms: O7_36  and  C26_37
REMARK                            x       y       z     vdW  Elec       q    Type
REMARK                         _______ _______ _______ _____ _____    ______ ____
ROOT
ATOM      1  C   UNL     1      46.951  12.480  18.756  0.00  0.00    +0.052 C 
ATOM      2  C   UNL     1      47.716  13.725  19.221  0.00  0.00    -0.095 C 
ATOM      3  C   UNL     1      47.267  14.920  18.393  0.00  0.00    +0.031 C 
ATOM      4  C   UNL     1      45.838  15.353  18.672  0.00  0.00    +0.029 C 
ATOM      5  C   UNL     1      45.527  15.534  20.148  0.00  0.00    +0.051 C 
ATOM      6  C   UNL     1      45.965  14.251  20.865  0.00  0.00    -0.145 C 
ATOM      7  C   UNL     1      45.138  13.480  21.527  0.00  0.00    +0.053 C 
ATOM      8  C   UNL     1      46.268  16.675  20.831  0.00  0.00    -0.060 C 
ATOM      9  C   UNL     1      45.749  16.620  22.322  0.00  0.00    +0.033 C 
ATOM     10  C   UNL     1      45.837  18.050  20.385  0.00  0.00    +0.039 C 
ATOM     16  C   UNL     1      46.686  18.796  19.384  0.00  0.00    -0.089 C 
ATOM     17  C   UNL     1      46.765  20.280  19.833  0.00  0.00    +0.061 C 
ATOM     18  C   UNL     1      46.006  18.787  18.006  0.00  0.00    +0.062 C 
ATOM     19  C   UNL     1      48.091  18.295  19.244  0.00  0.00    +0.378 C 
ATOM     20  C   UNL     1      48.669  17.147  19.997  0.00  0.00    +0.031 C 
ATOM     21  O   UNL     1      48.831  18.902  18.455  0.00  0.00    -0.467 OA
ATOM     22  C   UNL     1      47.749  16.456  20.976  0.00  0.00    +0.229 C 
ATOM     23  O   UNL     1      48.169  15.116  21.152  0.00  0.00    -0.372 OA
ATOM     24  C   UNL     1      49.216  13.473  19.037  0.00  0.00    +0.286 C 
ATOM     30  O   UNL     1      49.624  12.380  19.870  0.00  0.00    -0.368 OA
ATOM     31  C   UNL     1      49.295  12.449  21.177  0.00  0.00    +0.497 C 
ATOM     32  O   UNL     1      50.125  12.271  22.040  0.00  0.00    -0.445 OA
ATOM     33  C   UNL     1      47.854  12.763  21.528  0.00  0.00    +0.086 C 
ATOM     34  C   UNL     1      47.446  13.989  20.709  0.00  0.00    +0.183 C 
ENDROOT
BRANCH  24  25
ATOM     25  C   UNL     1      49.502  13.119  17.600  0.00  0.00    -0.185 A 
ATOM     26  C   UNL     1      49.566  14.014  16.509  0.00  0.00    -0.049 A 
ATOM     27  C   UNL     1      49.847  13.280  15.417  0.00  0.00    +0.170 A 
ATOM     28  O   UNL     1      49.956  11.993  15.788  0.00  0.00    -0.173 OA
ATOM     29  C   UNL     1      49.754  11.890  17.113  0.00  0.00    +0.201 A 
ENDBRANCH  24  25
BRANCH  10  11
ATOM     11  C   UNL     1      44.377  18.064  19.921  0.00  0.00    +0.111 C 
BRANCH  11  12
ATOM     12  C   UNL     1      43.600  19.064  20.739  0.00  0.00    +0.454 C 
ATOM     15  O   UNL     1      43.300  18.807  21.882  0.00  0.00    -0.491 OA
BRANCH  12  13
ATOM     13  O   UNL     1      43.243  20.240  20.200  0.00  0.00    -0.354 OA
ATOM     14  C   UNL     1      42.685  20.208  18.884  0.00  0.00    +0.257 C 
ENDBRANCH  12  13
ENDBRANCH  11  12
ENDBRANCH  10  11
TORSDOF 4
ENDMDL
MODEL 8
REMARK VINA RESULT:      -5.2      4.400      6.353
REMARK  Name = ZINC03978133
REMARK  9 active torsions:
REMARK  status: ('A' for Active; 'I' for Inactive)
REMARK    1  A    between atoms: C1_1  and  C2_2
REMARK    2  A    between atoms: C11_14  and  C12_16
REMARK    3  A    between atoms: C17_24  and  C27_38
REMARK    4  A    between atoms: C18_25  and  C24_33
REMARK    5  A    between atoms: C19_27  and  C22_31
REMARK    6  A    between atoms: C19_27  and  C23_32
REMARK    7  A    between atoms: C24_33  and  C25_34
REMARK    8  A    between atoms: C25_34  and  O7_36
REMARK    9  A    between atoms: O7_36  and  C26_37
REMARK                            x       y       z     vdW  Elec       q    Type
REMARK                         _______ _______ _______ _____ _____    ______ ____
ROOT
ATOM      1  C   UNL     1      49.495  10.776  15.482  0.00  0.00    +0.052 C 
ATOM      2  C   UNL     1      50.021  12.077  16.101  0.00  0.00    -0.095 C 
ATOM      3  C   UNL     1      49.053  13.205  15.778  0.00  0.00    +0.031 C 
ATOM      4  C   UNL     1      47.716  13.084  16.486  0.00  0.00    +0.029 C 
ATOM      5  C   UNL     1      47.830  12.843  17.982  0.00  0.00    +0.051 C 
ATOM      6  C   UNL     1      48.776  11.652  18.178  0.00  0.00    -0.145 C 
ATOM      7  C   UNL     1      48.413  10.534  18.758  0.00  0.00    +0.053 C 
ATOM      8  C   UNL     1      48.427  13.994  18.779  0.00  0.00    -0.060 C 
ATOM      9  C   UNL     1      48.415  13.465  20.267  0.00  0.00    +0.033 C 
ATOM     10  C   UNL     1      47.546  15.215  18.859  0.00  0.00    +0.039 C 
ATOM     16  C   UNL     1      47.832  16.387  17.952  0.00  0.00    -0.089 C 
ATOM     17  C   UNL     1      47.663  17.690  18.781  0.00  0.00    +0.061 C 
ATOM     18  C   UNL     1      46.793  16.445  16.821  0.00  0.00    +0.062 C 
ATOM     19  C   UNL     1      49.208  16.410  17.358  0.00  0.00    +0.378 C 
ATOM     20  C   UNL     1      50.260  15.382  17.596  0.00  0.00    +0.031 C 
ATOM     21  O   UNL     1      49.495  17.374  16.633  0.00  0.00    -0.467 OA
ATOM     22  C   UNL     1      49.887  14.242  18.516  0.00  0.00    +0.229 C 
ATOM     23  O   UNL     1      50.667  13.106  18.197  0.00  0.00    -0.372 OA
ATOM     24  C   UNL     1      51.407  12.369  15.518  0.00  0.00    +0.286 C 
ATOM     30  O   UNL     1      52.312  11.320  15.884  0.00  0.00    -0.368 OA
ATOM     31  C   UNL     1      52.388  11.005  17.195  0.00  0.00    +0.497 C 
ATOM     32  O   UNL     1      53.456  10.930  17.758  0.00  0.00    -0.445 OA
ATOM     33  C   UNL     1      51.091  10.754  17.937  0.00  0.00    +0.086 C 
ATOM     34  C   UNL     1      50.156  11.923  17.622  0.00  0.00    +0.183 C 
ENDROOT
BRANCH  24  25
ATOM     25  C   UNL     1      51.326  12.433  14.014  0.00  0.00    -0.185 A 
ATOM     26  C   UNL     1      51.456  13.590  13.213  0.00  0.00    -0.049 A 
ATOM     27  C   UNL     1      51.319  13.196  11.934  0.00  0.00    +0.170 A 
ATOM     28  O   UNL     1      51.115  11.868  11.918  0.00  0.00    -0.173 OA
ATOM     29  C   UNL     1      51.124  11.399  13.177  0.00  0.00    +0.201 A 
ENDBRANCH  24  25
BRANCH  10  11
ATOM     11  C   UNL     1      46.060  14.852  18.762  0.00  0.00    +0.111 C 
BRANCH  11  12
ATOM     12  C   UNL     1      45.350  15.307  20.011  0.00  0.00    +0.454 C 
ATOM     15  O   UNL     1      45.295  14.578  20.974  0.00  0.00    -0.491 OA
BRANCH  12  13
ATOM     13  O   UNL     1      44.779  16.521  20.054  0.00  0.00    -0.354 OA
ATOM     14  C   UNL     1      44.322  16.978  21.330  0.00  0.00    +0.257 C 
ENDBRANCH  12  13
ENDBRANCH  11  12
ENDBRANCH  10  11
TORSDOF 4
ENDMDL
MODEL 9
REMARK VINA RESULT:      -5.0      3.521      6.858
REMARK  Name = ZINC03978133
REMARK  9 active torsions:
REMARK  status: ('A' for Active; 'I' for Inactive)
REMARK    1  A    between atoms: C1_1  and  C2_2
REMARK    2  A    between atoms: C11_14  and  C12_16
REMARK    3  A    between atoms: C17_24  and  C27_38
REMARK    4  A    between atoms: C18_25  and  C24_33
REMARK    5  A    between atoms: C19_27  and  C22_31
REMARK    6  A    between atoms: C19_27  and  C23_32
REMARK    7  A    between atoms: C24_33  and  C25_34
REMARK    8  A    between atoms: C25_34  and  O7_36
REMARK    9  A    between atoms: O7_36  and  C26_37
REMARK                            x       y       z     vdW  Elec       q    Type
REMARK                         _______ _______ _______ _____ _____    ______ ____
ROOT
ATOM      1  C   UNL     1      49.554  12.483  18.454  0.00  0.00    +0.052 C 
ATOM      2  C   UNL     1      49.350  13.847  17.783  0.00  0.00    -0.095 C 
ATOM      3  C   UNL     1      48.608  14.764  18.745  0.00  0.00    +0.031 C 
ATOM      4  C   UNL     1      49.430  15.172  19.955  0.00  0.00    +0.029 C 
ATOM      5  C   UNL     1      50.811  15.703  19.611  0.00  0.00    +0.051 C 
ATOM      6  C   UNL     1      51.479  14.672  18.693  0.00  0.00    -0.145 C 
ATOM      7  C   UNL     1      52.589  14.048  19.003  0.00  0.00    +0.053 C 
ATOM      8  C   UNL     1      50.826  17.021  18.848  0.00  0.00    -0.060 C 
ATOM      9  C   UNL     1      52.364  17.317  18.641  0.00  0.00    +0.033 C 
ATOM     10  C   UNL     1      50.370  18.210  19.655  0.00  0.00    +0.039 C 
ATOM     16  C   UNL     1      48.962  18.725  19.472  0.00  0.00    -0.089 C 
ATOM     17  C   UNL     1      49.016  20.277  19.453  0.00  0.00    +0.061 C 
ATOM     18  C   UNL     1      48.094  18.327  20.676  0.00  0.00    +0.062 C 
ATOM     19  C   UNL     1      48.284  18.285  18.210  0.00  0.00    +0.378 C 
ATOM     20  C   UNL     1      48.891  17.402  17.175  0.00  0.00    +0.031 C 
ATOM     21  O   UNL     1      47.138  18.713  18.006  0.00  0.00    -0.467 OA
ATOM     22  C   UNL     1      50.303  16.931  17.441  0.00  0.00    +0.229 C 
ATOM     23  O   UNL     1      50.524  15.706  16.768  0.00  0.00    -0.372 OA
ATOM     24  C   UNL     1      48.540  13.642  16.499  0.00  0.00    +0.286 C 
ATOM     30  O   UNL     1      49.285  12.822  15.589  0.00  0.00    -0.368 OA
ATOM     31  C   UNL     1      50.551  13.202  15.316  0.00  0.00    +0.497 C 
ATOM     32  O   UNL     1      50.942  13.296  14.175  0.00  0.00    -0.445 OA
ATOM     33  C   UNL     1      51.463  13.511  16.486  0.00  0.00    +0.086 C 
ATOM     34  C   UNL     1      50.705  14.464  17.412  0.00  0.00    +0.183 C 
ENDROOT
BRANCH  24  25
ATOM     25  C   UNL     1      47.240  12.951  16.819  0.00  0.00    -0.185 A 
ATOM     26  C   UNL     1      46.183  13.466  17.603  0.00  0.00    -0.049 A 
ATOM     27  C   UNL     1      45.221  12.527  17.629  0.00  0.00    +0.170 A 
ATOM     28  O   UNL     1      45.637  11.474  16.904  0.00  0.00    -0.173 OA
ATOM     29  C   UNL     1      46.858  11.729  16.406  0.00  0.00    +0.201 A 
ENDBRANCH  24  25
BRANCH  10  11
ATOM     11  C   UNL     1      50.649  18.024  21.150  0.00  0.00    +0.111 C 
BRANCH  11  12
ATOM     12  C   UNL     1      51.762  18.948  21.572  0.00  0.00    +0.454 C 
ATOM     15  O   UNL     1      52.836  18.495  21.893  0.00  0.00    -0.491 OA
BRANCH  12  13
ATOM     13  O   UNL     1      51.562  20.275  21.589  0.00  0.00    -0.354 OA
ATOM     14  C   UNL     1      52.495  21.082  20.868  0.00  0.00    +0.257 C 
ENDBRANCH  12  13
ENDBRANCH  11  12
ENDBRANCH  10  11
TORSDOF 4
ENDMDL
