MODEL 1
REMARK VINA RESULT:      -5.5      0.000      0.000
REMARK  Name = ZINC05063215
REMARK  1 active torsions:
REMARK  status: ('A' for Active; 'I' for Inactive)
REMARK    1  A    between atoms: C6_6  and  O1_7
REMARK                            x       y       z     vdW  Elec       q    Type
REMARK                         _______ _______ _______ _____ _____    ______ ____
ROOT
ATOM      1  C   UNL     1      36.108  31.659  12.137  0.00  0.00    -0.021 A 
ATOM      2  C   UNL     1      35.626  31.655  10.844  0.00  0.00    +0.074 A 
ATOM      3  C   UNL     1      35.798  32.761  10.026  0.00  0.00    -0.163 A 
ATOM      4  C   UNL     1      36.451  33.880  10.512  0.00  0.00    +0.138 A 
ATOM      5  O   UNL     1      36.631  34.996   9.755  0.00  0.00    -0.296 OA
ATOM      6  C   UNL     1      36.359  34.893   8.440  0.00  0.00    +0.488 C 
ATOM      7  C   UNL     1      35.117  34.114   8.054  0.00  0.00    +0.063 C 
ATOM      8  O   UNL     1      37.071  35.399   7.607  0.00  0.00    -0.432 OA
ATOM      9  C   UNL     1      36.939  33.886  11.814  0.00  0.00    -0.014 A 
ATOM     10  C   UNL     1      35.270  32.696   8.615  0.00  0.00    +0.118 C 
ATOM     11  C   UNL     1      36.764  32.779  12.628  0.00  0.00    +0.141 A 
ENDROOT
BRANCH  11  12
ATOM     12  O   UNL     1      37.237  32.787  13.902  0.00  0.00    -0.493 OA
ATOM     13  H   UNL     1      38.187  32.619  13.970  0.00  0.00    +0.398 HD
ENDBRANCH  11  12
TORSDOF 1
ENDMDL
MODEL 2
REMARK VINA RESULT:      -4.9     17.571     18.328
REMARK  Name = ZINC05063215
REMARK  1 active torsions:
REMARK  status: ('A' for Active; 'I' for Inactive)
REMARK    1  A    between atoms: C6_6  and  O1_7
REMARK                            x       y       z     vdW  Elec       q    Type
REMARK                         _______ _______ _______ _____ _____    ______ ____
ROOT
ATOM      1  C   UNL     1      52.112  34.944   7.305  0.00  0.00    -0.021 A 
ATOM      2  C   UNL     1      53.451  35.180   7.064  0.00  0.00    +0.074 A 
ATOM      3  C   UNL     1      54.176  34.333   6.242  0.00  0.00    -0.163 A 
ATOM      4  C   UNL     1      53.556  33.239   5.664  0.00  0.00    +0.138 A 
ATOM      5  O   UNL     1      54.227  32.369   4.861  0.00  0.00    -0.296 OA
ATOM      6  C   UNL     1      55.460  32.735   4.460  0.00  0.00    +0.488 C 
ATOM      7  C   UNL     1      56.353  33.392   5.493  0.00  0.00    +0.063 C 
ATOM      8  O   UNL     1      55.837  32.547   3.328  0.00  0.00    -0.432 OA
ATOM      9  C   UNL     1      52.207  33.001   5.903  0.00  0.00    -0.014 A 
ATOM     10  C   UNL     1      55.630  34.647   5.996  0.00  0.00    +0.118 C 
ATOM     11  C   UNL     1      51.487  33.850   6.727  0.00  0.00    +0.141 A 
ENDROOT
BRANCH  11  12
ATOM     12  O   UNL     1      50.170  33.613   6.965  0.00  0.00    -0.493 OA
ATOM     13  H   UNL     1      49.752  34.263   7.546  0.00  0.00    +0.398 HD
ENDBRANCH  11  12
TORSDOF 1
ENDMDL
MODEL 3
REMARK VINA RESULT:      -4.9     14.952     16.513
REMARK  Name = ZINC05063215
REMARK  1 active torsions:
REMARK  status: ('A' for Active; 'I' for Inactive)
REMARK    1  A    between atoms: C6_6  and  O1_7
REMARK                            x       y       z     vdW  Elec       q    Type
REMARK                         _______ _______ _______ _____ _____    ______ ____
ROOT
ATOM      1  C   UNL     1      40.857  19.933  18.386  0.00  0.00    -0.021 A 
ATOM      2  C   UNL     1      42.151  19.675  18.794  0.00  0.00    +0.074 A 
ATOM      3  C   UNL     1      42.986  20.711  19.180  0.00  0.00    -0.163 A 
ATOM      4  C   UNL     1      42.523  22.015  19.150  0.00  0.00    +0.138 A 
ATOM      5  O   UNL     1      43.307  23.069  19.504  0.00  0.00    -0.296 OA
ATOM      6  C   UNL     1      44.478  22.783  20.108  0.00  0.00    +0.488 C 
ATOM      7  C   UNL     1      45.272  21.618  19.552  0.00  0.00    +0.063 C 
ATOM      8  O   UNL     1      44.876  23.427  21.048  0.00  0.00    -0.432 OA
ATOM      9  C   UNL     1      41.220  22.277  18.742  0.00  0.00    -0.014 A 
ATOM     10  C   UNL     1      44.383  20.372  19.637  0.00  0.00    +0.118 C 
ATOM     11  C   UNL     1      40.389  21.239  18.355  0.00  0.00    +0.141 A 
ENDROOT
BRANCH  11  12
ATOM     12  O   UNL     1      39.118  21.497  17.951  0.00  0.00    -0.493 OA
ATOM     13  H   UNL     1      39.006  21.514  16.990  0.00  0.00    +0.398 HD
ENDBRANCH  11  12
TORSDOF 1
ENDMDL
MODEL 4
REMARK VINA RESULT:      -4.7     20.687     21.904
REMARK  Name = ZINC05063215
REMARK  1 active torsions:
REMARK  status: ('A' for Active; 'I' for Inactive)
REMARK    1  A    between atoms: C6_6  and  O1_7
REMARK                            x       y       z     vdW  Elec       q    Type
REMARK                         _______ _______ _______ _____ _____    ______ ____
ROOT
ATOM      1  C   UNL     1      52.270  19.689  15.774  0.00  0.00    -0.021 A 
ATOM      2  C   UNL     1      51.694  20.577  16.661  0.00  0.00    +0.074 A 
ATOM      3  C   UNL     1      50.795  20.131  17.617  0.00  0.00    -0.163 A 
ATOM      4  C   UNL     1      50.466  18.787  17.678  0.00  0.00    +0.138 A 
ATOM      5  O   UNL     1      49.578  18.302  18.587  0.00  0.00    -0.296 OA
ATOM      6  C   UNL     1      49.202  19.134  19.578  0.00  0.00    +0.488 C 
ATOM      7  C   UNL     1      48.929  20.576  19.200  0.00  0.00    +0.063 C 
ATOM      8  O   UNL     1      49.087  18.748  20.716  0.00  0.00    -0.432 OA
ATOM      9  C   UNL     1      51.047  17.892  16.788  0.00  0.00    -0.014 A 
ATOM     10  C   UNL     1      50.210  21.139  18.574  0.00  0.00    +0.118 C 
ATOM     11  C   UNL     1      51.944  18.342  15.833  0.00  0.00    +0.141 A 
ENDROOT
BRANCH  11  12
ATOM     12  O   UNL     1      52.507  17.466  14.960  0.00  0.00    -0.493 OA
ATOM     13  H   UNL     1      52.644  17.828  14.073  0.00  0.00    +0.398 HD
ENDBRANCH  11  12
TORSDOF 1
ENDMDL
MODEL 5
REMARK VINA RESULT:      -4.7     15.102     17.712
REMARK  Name = ZINC05063215
REMARK  1 active torsions:
REMARK  status: ('A' for Active; 'I' for Inactive)
REMARK    1  A    between atoms: C6_6  and  O1_7
REMARK                            x       y       z     vdW  Elec       q    Type
REMARK                         _______ _______ _______ _____ _____    ______ ____
ROOT
ATOM      1  C   UNL     1      41.729  22.641  18.747  0.00  0.00    -0.021 A 
ATOM      2  C   UNL     1      42.955  22.376  19.324  0.00  0.00    +0.074 A 
ATOM      3  C   UNL     1      43.287  21.087  19.709  0.00  0.00    -0.163 A 
ATOM      4  C   UNL     1      42.380  20.058  19.519  0.00  0.00    +0.138 A 
ATOM      5  O   UNL     1      42.651  18.779  19.893  0.00  0.00    -0.296 OA
ATOM      6  C   UNL     1      43.922  18.500  20.242  0.00  0.00    +0.488 C 
ATOM      7  C   UNL     1      44.642  19.528  21.093  0.00  0.00    +0.063 C 
ATOM      8  O   UNL     1      44.463  17.479  19.894  0.00  0.00    -0.432 OA
ATOM      9  C   UNL     1      41.146  20.323  18.935  0.00  0.00    -0.014 A 
ATOM     10  C   UNL     1      44.646  20.849  20.316  0.00  0.00    +0.118 C 
ATOM     11  C   UNL     1      40.818  21.613  18.554  0.00  0.00    +0.141 A 
ENDROOT
BRANCH  11  12
ATOM     12  O   UNL     1      39.610  21.871  17.989  0.00  0.00    -0.493 OA
ATOM     13  H   UNL     1      39.540  22.751  17.593  0.00  0.00    +0.398 HD
ENDBRANCH  11  12
TORSDOF 1
ENDMDL
MODEL 6
REMARK VINA RESULT:      -4.6     15.200     16.622
REMARK  Name = ZINC05063215
REMARK  1 active torsions:
REMARK  status: ('A' for Active; 'I' for Inactive)
REMARK    1  A    between atoms: C6_6  and  O1_7
REMARK                            x       y       z     vdW  Elec       q    Type
REMARK                         _______ _______ _______ _____ _____    ______ ____
ROOT
ATOM      1  C   UNL     1      45.111  22.598  20.030  0.00  0.00    -0.021 A 
ATOM      2  C   UNL     1      44.684  21.287  20.096  0.00  0.00    +0.074 A 
ATOM      3  C   UNL     1      43.401  20.944  19.700  0.00  0.00    -0.163 A 
ATOM      4  C   UNL     1      42.539  21.926  19.241  0.00  0.00    +0.138 A 
ATOM      5  O   UNL     1      41.265  21.644  18.855  0.00  0.00    -0.296 OA
ATOM      6  C   UNL     1      40.942  20.344  18.713  0.00  0.00    +0.488 C 
ATOM      7  C   UNL     1      41.463  19.388  19.768  0.00  0.00    +0.063 C 
ATOM      8  O   UNL     1      40.269  19.958  17.789  0.00  0.00    -0.432 OA
ATOM      9  C   UNL     1      42.968  23.246  19.171  0.00  0.00    -0.014 A 
ATOM     10  C   UNL     1      42.992  19.495  19.773  0.00  0.00    +0.118 C 
ATOM     11  C   UNL     1      44.251  23.584  19.570  0.00  0.00    +0.141 A 
ENDROOT
BRANCH  11  12
ATOM     12  O   UNL     1      44.667  24.876  19.506  0.00  0.00    -0.493 OA
ATOM     13  H   UNL     1      45.605  24.977  19.293  0.00  0.00    +0.398 HD
ENDBRANCH  11  12
TORSDOF 1
ENDMDL
MODEL 7
REMARK VINA RESULT:      -4.6     17.830     18.484
REMARK  Name = ZINC05063215
REMARK  1 active torsions:
REMARK  status: ('A' for Active; 'I' for Inactive)
REMARK    1  A    between atoms: C6_6  and  O1_7
REMARK                            x       y       z     vdW  Elec       q    Type
REMARK                         _______ _______ _______ _____ _____    ______ ____
ROOT
ATOM      1  C   UNL     1      51.513  33.577   6.349  0.00  0.00    -0.021 A 
ATOM      2  C   UNL     1      52.168  32.747   5.461  0.00  0.00    +0.074 A 
ATOM      3  C   UNL     1      53.525  32.903   5.222  0.00  0.00    -0.163 A 
ATOM      4  C   UNL     1      54.226  33.905   5.873  0.00  0.00    +0.138 A 
ATOM      5  O   UNL     1      55.554  34.109   5.662  0.00  0.00    -0.296 OA
ATOM      6  C   UNL     1      56.217  33.160   4.973  0.00  0.00    +0.488 C 
ATOM      7  C   UNL     1      55.514  32.566   3.769  0.00  0.00    +0.063 C 
ATOM      8  O   UNL     1      57.322  32.799   5.301  0.00  0.00    -0.432 OA
ATOM      9  C   UNL     1      53.569  34.740   6.769  0.00  0.00    -0.014 A 
ATOM     10  C   UNL     1      54.195  31.957   4.259  0.00  0.00    +0.118 C 
ATOM     11  C   UNL     1      52.213  34.581   7.003  0.00  0.00    +0.141 A 
ENDROOT
BRANCH  11  12
ATOM     12  O   UNL     1      51.570  35.401   7.875  0.00  0.00    -0.493 OA
ATOM     13  H   UNL     1      51.571  35.083   8.788  0.00  0.00    +0.398 HD
ENDBRANCH  11  12
TORSDOF 1
ENDMDL
MODEL 8
REMARK VINA RESULT:      -4.5     20.639     22.435
REMARK  Name = ZINC05063215
REMARK  1 active torsions:
REMARK  status: ('A' for Active; 'I' for Inactive)
REMARK    1  A    between atoms: C6_6  and  O1_7
REMARK                            x       y       z     vdW  Elec       q    Type
REMARK                         _______ _______ _______ _____ _____    ______ ____
ROOT
ATOM      1  C   UNL     1      50.972  21.116  17.622  0.00  0.00    -0.021 A 
ATOM      2  C   UNL     1      50.381  20.116  18.368  0.00  0.00    +0.074 A 
ATOM      3  C   UNL     1      50.528  18.787  18.003  0.00  0.00    -0.163 A 
ATOM      4  C   UNL     1      51.267  18.461  16.878  0.00  0.00    +0.138 A 
ATOM      5  O   UNL     1      51.428  17.174  16.469  0.00  0.00    -0.296 OA
ATOM      6  C   UNL     1      51.040  16.207  17.324  0.00  0.00    +0.488 C 
ATOM      7  C   UNL     1      49.739  16.430  18.068  0.00  0.00    +0.063 C 
ATOM      8  O   UNL     1      51.699  15.209  17.489  0.00  0.00    -0.432 OA
ATOM      9  C   UNL     1      51.865  19.466  16.127  0.00  0.00    -0.014 A 
ATOM     10  C   UNL     1      49.879  17.733  18.864  0.00  0.00    +0.118 C 
ATOM     11  C   UNL     1      51.714  20.793  16.495  0.00  0.00    +0.141 A 
ENDROOT
BRANCH  11  12
ATOM     12  O   UNL     1      52.294  21.776  15.757  0.00  0.00    -0.493 OA
ATOM     13  H   UNL     1      51.816  22.616  15.775  0.00  0.00    +0.398 HD
ENDBRANCH  11  12
TORSDOF 1
ENDMDL
MODEL 9
REMARK VINA RESULT:      -4.3     10.837     12.546
REMARK  Name = ZINC05063215
REMARK  1 active torsions:
REMARK  status: ('A' for Active; 'I' for Inactive)
REMARK    1  A    between atoms: C6_6  and  O1_7
REMARK                            x       y       z     vdW  Elec       q    Type
REMARK                         _______ _______ _______ _____ _____    ______ ____
ROOT
ATOM      1  C   UNL     1      42.419  29.931  -0.247  0.00  0.00    -0.021 A 
ATOM      2  C   UNL     1      42.672  30.361   1.040  0.00  0.00    +0.074 A 
ATOM      3  C   UNL     1      43.075  31.665   1.280  0.00  0.00    -0.163 A 
ATOM      4  C   UNL     1      43.232  32.541   0.219  0.00  0.00    +0.138 A 
ATOM      5  O   UNL     1      43.639  33.826   0.399  0.00  0.00    -0.296 OA
ATOM      6  C   UNL     1      43.663  34.289   1.665  0.00  0.00    +0.488 C 
ATOM      7  C   UNL     1      44.190  33.349   2.730  0.00  0.00    +0.063 C 
ATOM      8  O   UNL     1      43.282  35.401   1.937  0.00  0.00    -0.432 OA
ATOM      9  C   UNL     1      42.975  32.111  -1.078  0.00  0.00    -0.014 A 
ATOM     10  C   UNL     1      43.318  32.088   2.706  0.00  0.00    +0.118 C 
ATOM     11  C   UNL     1      42.575  30.806  -1.312  0.00  0.00    +0.141 A 
ENDROOT
BRANCH  11  12
ATOM     12  O   UNL     1      42.330  30.385  -2.581  0.00  0.00    -0.493 OA
ATOM     13  H   UNL     1      42.141  31.101  -3.203  0.00  0.00    +0.398 HD
ENDBRANCH  11  12
TORSDOF 1
ENDMDL
