MODEL 1
REMARK VINA RESULT:      -7.4      0.000      0.000
REMARK  Name = ZINC14760755
REMARK  12 active torsions:
REMARK  status: ('A' for Active; 'I' for Inactive)
REMARK    1  A    between atoms: C1_1  and  C2_2
REMARK    2  A    between atoms: C6_6  and  O1_8
REMARK    3  A    between atoms: C12_14  and  O4_18
REMARK    4  A    between atoms: C14_16  and  O3_17
REMARK    5  A    between atoms: O4_18  and  C15_19
REMARK    6  A    between atoms: C15_19  and  C16_20
REMARK    7  A    between atoms: C17_21  and  C18_22
REMARK    8  A    between atoms: C17_21  and  C19_23
REMARK    9  A    between atoms: C19_23  and  C20_24
REMARK   10  A    between atoms: C20_24  and  C21_25
REMARK   11  A    between atoms: C22_26  and  C23_27
REMARK   12  A    between atoms: C22_26  and  C24_28
REMARK                            x       y       z     vdW  Elec       q    Type
REMARK                         _______ _______ _______ _____ _____    ______ ____
ROOT
ATOM      1  C   UNL     1      39.873  21.522  18.634  0.00  0.00    +0.101 C 
ATOM      2  C   UNL     1      40.924  20.627  19.237  0.00  0.00    -0.035 A 
ATOM      3  C   UNL     1      42.225  20.684  18.769  0.00  0.00    -0.009 A 
ATOM      4  C   UNL     1      43.207  19.871  19.313  0.00  0.00    -0.015 A 
ATOM      5  C   UNL     1      42.864  18.995  20.341  0.00  0.00    -0.192 A 
ATOM      6  C   UNL     1      43.902  18.130  20.937  0.00  0.00    +0.440 C 
ATOM      7  C   UNL     1      45.314  18.483  20.699  0.00  0.00    -0.229 A 
ATOM      8  C   UNL     1      45.640  19.368  19.670  0.00  0.00    +0.022 A 
ATOM      9  C   UNL     1      46.954  19.710  19.475  0.00  0.00    -0.033 A 
ATOM     10  C   UNL     1      47.953  19.180  20.283  0.00  0.00    +0.186 A 
ATOM     22  C   UNL     1      47.639  18.293  21.302  0.00  0.00    -0.114 A 
ATOM     23  C   UNL     1      46.317  17.938  21.514  0.00  0.00    +0.214 A 
ATOM     26  O   UNL     1      43.602  17.156  21.602  0.00  0.00    -0.425 OA
ATOM     27  C   UNL     1      41.548  18.936  20.814  0.00  0.00    +0.173 A 
ATOM     30  C   UNL     1      44.599  19.956  18.766  0.00  0.00    +0.168 C 
ATOM     31  C   UNL     1      40.580  19.757  20.253  0.00  0.00    -0.026 A 
ENDROOT
BRANCH  23  24
ATOM     24  O   UNL     1      45.995  17.068  22.505  0.00  0.00    -0.482 OA
ATOM     25  H   UNL     1      45.893  16.154  22.207  0.00  0.00    +0.403 HD
ENDBRANCH  23  24
BRANCH  27  28
ATOM     28  O   UNL     1      41.220  18.079  21.813  0.00  0.00    -0.479 OA
ATOM     29  H   UNL     1      41.970  17.586  22.170  0.00  0.00    +0.395 HD
ENDBRANCH  27  28
BRANCH  10  11
ATOM     11  O   UNL     1      49.247  19.532  20.073  0.00  0.00    -0.301 OA
BRANCH  11  12
ATOM     12  C   UNL     1      49.503  20.901  19.752  0.00  0.00    +0.235 C 
BRANCH  12  13
ATOM     13  C   UNL     1      49.936  21.007  18.313  0.00  0.00    -0.052 C 
ATOM     14  C   UNL     1      51.211  21.029  18.013  0.00  0.00    -0.096 C 
ATOM     21  C   UNL     1      52.243  21.074  19.110  0.00  0.00    +0.078 C 
BRANCH  14  15
ATOM     15  C   UNL     1      51.646  21.008  16.570  0.00  0.00    +0.067 C 
BRANCH  15  16
ATOM     16  C   UNL     1      52.221  19.632  16.231  0.00  0.00    +0.056 C 
BRANCH  16  17
ATOM     17  C   UNL     1      51.112  18.612  16.223  0.00  0.00    -0.062 C 
ATOM     18  C   UNL     1      51.081  17.670  17.132  0.00  0.00    -0.130 C 
ATOM     19  C   UNL     1      49.904  16.730  17.205  0.00  0.00    +0.072 C 
ATOM     20  C   UNL     1      52.221  17.526  18.107  0.00  0.00    +0.072 C 
ENDBRANCH  16  17
ENDBRANCH  15  16
ENDBRANCH  14  15
ENDBRANCH  12  13
ENDBRANCH  11  12
ENDBRANCH  10  11
TORSDOF 8
ENDMDL
MODEL 2
REMARK VINA RESULT:      -7.0      2.051      3.571
REMARK  Name = ZINC14760755
REMARK  12 active torsions:
REMARK  status: ('A' for Active; 'I' for Inactive)
REMARK    1  A    between atoms: C1_1  and  C2_2
REMARK    2  A    between atoms: C6_6  and  O1_8
REMARK    3  A    between atoms: C12_14  and  O4_18
REMARK    4  A    between atoms: C14_16  and  O3_17
REMARK    5  A    between atoms: O4_18  and  C15_19
REMARK    6  A    between atoms: C15_19  and  C16_20
REMARK    7  A    between atoms: C17_21  and  C18_22
REMARK    8  A    between atoms: C17_21  and  C19_23
REMARK    9  A    between atoms: C19_23  and  C20_24
REMARK   10  A    between atoms: C20_24  and  C21_25
REMARK   11  A    between atoms: C22_26  and  C23_27
REMARK   12  A    between atoms: C22_26  and  C24_28
REMARK                            x       y       z     vdW  Elec       q    Type
REMARK                         _______ _______ _______ _____ _____    ______ ____
ROOT
ATOM      1  C   UNL     1      39.474  21.131  18.306  0.00  0.00    +0.101 C 
ATOM      2  C   UNL     1      40.893  21.205  18.806  0.00  0.00    -0.035 A 
ATOM      3  C   UNL     1      41.520  20.060  19.265  0.00  0.00    -0.009 A 
ATOM      4  C   UNL     1      42.825  20.107  19.726  0.00  0.00    -0.015 A 
ATOM      5  C   UNL     1      43.500  21.326  19.719  0.00  0.00    -0.192 A 
ATOM      6  C   UNL     1      44.896  21.389  20.199  0.00  0.00    +0.440 C 
ATOM      7  C   UNL     1      45.646  20.124  20.306  0.00  0.00    -0.229 A 
ATOM      8  C   UNL     1      44.955  18.910  20.304  0.00  0.00    +0.022 A 
ATOM      9  C   UNL     1      45.665  17.739  20.377  0.00  0.00    -0.033 A 
ATOM     10  C   UNL     1      47.053  17.753  20.461  0.00  0.00    +0.186 A 
ATOM     22  C   UNL     1      47.745  18.955  20.473  0.00  0.00    -0.114 A 
ATOM     23  C   UNL     1      47.045  20.148  20.398  0.00  0.00    +0.214 A 
ATOM     26  O   UNL     1      45.410  22.451  20.497  0.00  0.00    -0.425 OA
ATOM     27  C   UNL     1      42.866  22.486  19.258  0.00  0.00    +0.173 A 
ATOM     30  C   UNL     1      43.460  18.845  20.226  0.00  0.00    +0.168 C 
ATOM     31  C   UNL     1      41.557  22.417  18.803  0.00  0.00    -0.026 A 
ENDROOT
BRANCH  23  24
ATOM     24  O   UNL     1      47.709  21.331  20.413  0.00  0.00    -0.482 OA
ATOM     25  H   UNL     1      48.330  21.423  21.149  0.00  0.00    +0.403 HD
ENDBRANCH  23  24
BRANCH  27  28
ATOM     28  O   UNL     1      43.527  23.670  19.256  0.00  0.00    -0.479 OA
ATOM     29  H   UNL     1      44.480  23.589  19.391  0.00  0.00    +0.395 HD
ENDBRANCH  27  28
BRANCH  10  11
ATOM     11  O   UNL     1      47.735  16.582  20.532  0.00  0.00    -0.301 OA
BRANCH  11  12
ATOM     12  C   UNL     1      47.795  15.792  19.343  0.00  0.00    +0.235 C 
BRANCH  12  13
ATOM     13  C   UNL     1      49.197  15.820  18.791  0.00  0.00    -0.052 C 
ATOM     14  C   UNL     1      49.473  16.554  17.741  0.00  0.00    -0.096 C 
ATOM     21  C   UNL     1      48.367  17.270  17.010  0.00  0.00    +0.078 C 
BRANCH  14  15
ATOM     15  C   UNL     1      50.897  16.681  17.265  0.00  0.00    +0.067 C 
BRANCH  15  16
ATOM     16  C   UNL     1      51.550  17.894  17.931  0.00  0.00    +0.056 C 
BRANCH  16  17
ATOM     17  C   UNL     1      51.752  18.981  16.908  0.00  0.00    -0.062 C 
ATOM     18  C   UNL     1      51.288  20.186  17.130  0.00  0.00    -0.130 C 
ATOM     19  C   UNL     1      51.603  21.304  16.171  0.00  0.00    +0.072 C 
ATOM     20  C   UNL     1      50.439  20.453  18.346  0.00  0.00    +0.072 C 
ENDBRANCH  16  17
ENDBRANCH  15  16
ENDBRANCH  14  15
ENDBRANCH  12  13
ENDBRANCH  11  12
ENDBRANCH  10  11
TORSDOF 8
ENDMDL
MODEL 3
REMARK VINA RESULT:      -6.7      1.336      2.227
REMARK  Name = ZINC14760755
REMARK  12 active torsions:
REMARK  status: ('A' for Active; 'I' for Inactive)
REMARK    1  A    between atoms: C1_1  and  C2_2
REMARK    2  A    between atoms: C6_6  and  O1_8
REMARK    3  A    between atoms: C12_14  and  O4_18
REMARK    4  A    between atoms: C14_16  and  O3_17
REMARK    5  A    between atoms: O4_18  and  C15_19
REMARK    6  A    between atoms: C15_19  and  C16_20
REMARK    7  A    between atoms: C17_21  and  C18_22
REMARK    8  A    between atoms: C17_21  and  C19_23
REMARK    9  A    between atoms: C19_23  and  C20_24
REMARK   10  A    between atoms: C20_24  and  C21_25
REMARK   11  A    between atoms: C22_26  and  C23_27
REMARK   12  A    between atoms: C22_26  and  C24_28
REMARK                            x       y       z     vdW  Elec       q    Type
REMARK                         _______ _______ _______ _____ _____    ______ ____
ROOT
ATOM      1  C   UNL     1      39.789  21.271  18.656  0.00  0.00    +0.101 C 
ATOM      2  C   UNL     1      40.977  20.562  19.253  0.00  0.00    -0.035 A 
ATOM      3  C   UNL     1      42.250  20.852  18.796  0.00  0.00    -0.009 A 
ATOM      4  C   UNL     1      43.356  20.213  19.334  0.00  0.00    -0.015 A 
ATOM      5  C   UNL     1      43.165  19.274  20.347  0.00  0.00    -0.192 A 
ATOM      6  C   UNL     1      44.336  18.593  20.938  0.00  0.00    +0.440 C 
ATOM      7  C   UNL     1      45.665  19.189  20.716  0.00  0.00    -0.229 A 
ATOM      8  C   UNL     1      45.838  20.134  19.702  0.00  0.00    +0.022 A 
ATOM      9  C   UNL     1      47.073  20.703  19.522  0.00  0.00    -0.033 A 
ATOM     10  C   UNL     1      48.145  20.341  20.330  0.00  0.00    +0.186 A 
ATOM     22  C   UNL     1      47.985  19.397  21.333  0.00  0.00    -0.114 A 
ATOM     23  C   UNL     1      46.744  18.814  21.530  0.00  0.00    +0.214 A 
ATOM     26  O   UNL     1      44.206  17.572  21.586  0.00  0.00    -0.425 OA
ATOM     27  C   UNL     1      41.877  18.980  20.809  0.00  0.00    +0.173 A 
ATOM     30  C   UNL     1      44.715  20.547  18.800  0.00  0.00    +0.168 C 
ATOM     31  C   UNL     1      40.784  19.629  20.254  0.00  0.00    -0.026 A 
ENDROOT
BRANCH  23  24
ATOM     24  O   UNL     1      46.574  17.886  22.505  0.00  0.00    -0.482 OA
ATOM     25  H   UNL     1      46.867  18.177  23.380  0.00  0.00    +0.403 HD
ENDBRANCH  23  24
BRANCH  27  28
ATOM     28  O   UNL     1      41.698  18.063  21.793  0.00  0.00    -0.479 OA
ATOM     29  H   UNL     1      41.496  17.175  21.471  0.00  0.00    +0.395 HD
ENDBRANCH  27  28
BRANCH  10  11
ATOM     11  O   UNL     1      49.359  20.916  20.135  0.00  0.00    -0.301 OA
BRANCH  11  12
ATOM     12  C   UNL     1      49.937  20.788  18.834  0.00  0.00    +0.235 C 
BRANCH  12  13
ATOM     13  C   UNL     1      49.809  19.361  18.366  0.00  0.00    -0.052 C 
ATOM     14  C   UNL     1      50.874  18.603  18.280  0.00  0.00    -0.096 C 
ATOM     21  C   UNL     1      52.239  19.189  18.528  0.00  0.00    +0.078 C 
BRANCH  14  15
ATOM     15  C   UNL     1      50.732  17.142  17.934  0.00  0.00    +0.067 C 
BRANCH  15  16
ATOM     16  C   UNL     1      49.373  16.905  17.275  0.00  0.00    +0.056 C 
BRANCH  16  17
ATOM     17  C   UNL     1      48.429  16.290  18.276  0.00  0.00    -0.062 C 
ATOM     18  C   UNL     1      47.152  16.577  18.236  0.00  0.00    -0.130 C 
ATOM     19  C   UNL     1      46.189  15.863  19.150  0.00  0.00    +0.072 C 
ATOM     20  C   UNL     1      46.645  17.621  17.275  0.00  0.00    +0.072 C 
ENDBRANCH  16  17
ENDBRANCH  15  16
ENDBRANCH  14  15
ENDBRANCH  12  13
ENDBRANCH  11  12
ENDBRANCH  10  11
TORSDOF 8
ENDMDL
MODEL 4
REMARK VINA RESULT:      -6.6      2.425      3.825
REMARK  Name = ZINC14760755
REMARK  12 active torsions:
REMARK  status: ('A' for Active; 'I' for Inactive)
REMARK    1  A    between atoms: C1_1  and  C2_2
REMARK    2  A    between atoms: C6_6  and  O1_8
REMARK    3  A    between atoms: C12_14  and  O4_18
REMARK    4  A    between atoms: C14_16  and  O3_17
REMARK    5  A    between atoms: O4_18  and  C15_19
REMARK    6  A    between atoms: C15_19  and  C16_20
REMARK    7  A    between atoms: C17_21  and  C18_22
REMARK    8  A    between atoms: C17_21  and  C19_23
REMARK    9  A    between atoms: C19_23  and  C20_24
REMARK   10  A    between atoms: C20_24  and  C21_25
REMARK   11  A    between atoms: C22_26  and  C23_27
REMARK   12  A    between atoms: C22_26  and  C24_28
REMARK                            x       y       z     vdW  Elec       q    Type
REMARK                         _______ _______ _______ _____ _____    ______ ____
ROOT
ATOM      1  C   UNL     1      45.095  23.833  20.066  0.00  0.00    +0.101 C 
ATOM      2  C   UNL     1      44.906  22.342  20.166  0.00  0.00    -0.035 A 
ATOM      3  C   UNL     1      45.310  21.528  19.123  0.00  0.00    -0.009 A 
ATOM      4  C   UNL     1      45.148  20.154  19.197  0.00  0.00    -0.015 A 
ATOM      5  C   UNL     1      44.572  19.603  20.341  0.00  0.00    -0.192 A 
ATOM      6  C   UNL     1      44.402  18.139  20.438  0.00  0.00    +0.440 C 
ATOM      7  C   UNL     1      45.177  17.292  19.513  0.00  0.00    -0.229 A 
ATOM      8  C   UNL     1      45.754  17.860  18.376  0.00  0.00    +0.022 A 
ATOM      9  C   UNL     1      46.496  17.068  17.537  0.00  0.00    -0.033 A 
ATOM     10  C   UNL     1      46.668  15.715  17.806  0.00  0.00    +0.186 A 
ATOM     22  C   UNL     1      46.091  15.141  18.928  0.00  0.00    -0.114 A 
ATOM     23  C   UNL     1      45.340  15.926  19.788  0.00  0.00    +0.214 A 
ATOM     26  O   UNL     1      43.645  17.648  21.254  0.00  0.00    -0.425 OA
ATOM     27  C   UNL     1      44.161  20.427  21.395  0.00  0.00    +0.173 A 
ATOM     30  C   UNL     1      45.588  19.311  18.039  0.00  0.00    +0.168 C 
ATOM     31  C   UNL     1      44.331  21.801  21.299  0.00  0.00    -0.026 A 
ENDROOT
BRANCH  23  24
ATOM     24  O   UNL     1      44.766  15.377  20.888  0.00  0.00    -0.482 OA
ATOM     25  H   UNL     1      44.702  15.981  21.640  0.00  0.00    +0.403 HD
ENDBRANCH  23  24
BRANCH  27  28
ATOM     28  O   UNL     1      43.599  19.885  22.505  0.00  0.00    -0.479 OA
ATOM     29  H   UNL     1      43.737  20.404  23.308  0.00  0.00    +0.395 HD
ENDBRANCH  27  28
BRANCH  10  11
ATOM     11  O   UNL     1      47.407  14.950  16.962  0.00  0.00    -0.301 OA
BRANCH  11  12
ATOM     12  C   UNL     1      48.723  14.595  17.391  0.00  0.00    +0.235 C 
BRANCH  12  13
ATOM     13  C   UNL     1      49.665  15.739  17.119  0.00  0.00    -0.052 C 
ATOM     14  C   UNL     1      50.282  16.329  18.113  0.00  0.00    -0.096 C 
ATOM     21  C   UNL     1      49.956  15.950  19.534  0.00  0.00    +0.078 C 
BRANCH  14  15
ATOM     15  C   UNL     1      51.318  17.387  17.834  0.00  0.00    +0.067 C 
BRANCH  15  16
ATOM     16  C   UNL     1      50.631  18.646  17.304  0.00  0.00    +0.056 C 
BRANCH  16  17
ATOM     17  C   UNL     1      49.624  19.133  18.314  0.00  0.00    -0.062 C 
ATOM     18  C   UNL     1      49.799  20.286  18.911  0.00  0.00    -0.130 C 
ATOM     19  C   UNL     1      48.730  20.833  19.821  0.00  0.00    +0.072 C 
ATOM     20  C   UNL     1      51.068  21.065  18.686  0.00  0.00    +0.072 C 
ENDBRANCH  16  17
ENDBRANCH  15  16
ENDBRANCH  14  15
ENDBRANCH  12  13
ENDBRANCH  11  12
ENDBRANCH  10  11
TORSDOF 8
ENDMDL
MODEL 5
REMARK VINA RESULT:      -6.6      2.958      5.030
REMARK  Name = ZINC14760755
REMARK  12 active torsions:
REMARK  status: ('A' for Active; 'I' for Inactive)
REMARK    1  A    between atoms: C1_1  and  C2_2
REMARK    2  A    between atoms: C6_6  and  O1_8
REMARK    3  A    between atoms: C12_14  and  O4_18
REMARK    4  A    between atoms: C14_16  and  O3_17
REMARK    5  A    between atoms: O4_18  and  C15_19
REMARK    6  A    between atoms: C15_19  and  C16_20
REMARK    7  A    between atoms: C17_21  and  C18_22
REMARK    8  A    between atoms: C17_21  and  C19_23
REMARK    9  A    between atoms: C19_23  and  C20_24
REMARK   10  A    between atoms: C20_24  and  C21_25
REMARK   11  A    between atoms: C22_26  and  C23_27
REMARK   12  A    between atoms: C22_26  and  C24_28
REMARK                            x       y       z     vdW  Elec       q    Type
REMARK                         _______ _______ _______ _____ _____    ______ ____
ROOT
ATOM      1  C   UNL     1      39.505  21.203  18.346  0.00  0.00    +0.101 C 
ATOM      2  C   UNL     1      40.830  20.931  19.009  0.00  0.00    -0.035 A 
ATOM      3  C   UNL     1      40.997  19.781  19.761  0.00  0.00    -0.009 A 
ATOM      4  C   UNL     1      42.208  19.511  20.377  0.00  0.00    -0.015 A 
ATOM      5  C   UNL     1      43.258  20.415  20.225  0.00  0.00    -0.192 A 
ATOM      6  C   UNL     1      44.559  20.135  20.868  0.00  0.00    +0.440 C 
ATOM      7  C   UNL     1      44.823  18.756  21.318  0.00  0.00    -0.229 A 
ATOM      8  C   UNL     1      43.760  17.860  21.457  0.00  0.00    +0.022 A 
ATOM      9  C   UNL     1      44.021  16.572  21.851  0.00  0.00    -0.033 A 
ATOM     10  C   UNL     1      45.321  16.160  22.117  0.00  0.00    +0.186 A 
ATOM     22  C   UNL     1      46.381  17.046  21.990  0.00  0.00    -0.114 A 
ATOM     23  C   UNL     1      46.137  18.350  21.592  0.00  0.00    +0.214 A 
ATOM     26  O   UNL     1      45.385  21.014  21.021  0.00  0.00    -0.425 OA
ATOM     27  C   UNL     1      43.089  21.579  19.467  0.00  0.00    +0.173 A 
ATOM     30  C   UNL     1      42.341  18.261  21.192  0.00  0.00    +0.168 C 
ATOM     31  C   UNL     1      41.867  21.831  18.861  0.00  0.00    -0.026 A 
ENDROOT
BRANCH  23  24
ATOM     24  O   UNL     1      47.164  19.228  21.467  0.00  0.00    -0.482 OA
ATOM     25  H   UNL     1      47.979  18.944  21.904  0.00  0.00    +0.403 HD
ENDBRANCH  23  24
BRANCH  27  28
ATOM     28  O   UNL     1      44.114  22.456  19.325  0.00  0.00    -0.479 OA
ATOM     29  H   UNL     1      44.552  22.414  18.464  0.00  0.00    +0.395 HD
ENDBRANCH  27  28
BRANCH  10  11
ATOM     11  O   UNL     1      45.556  14.881  22.505  0.00  0.00    -0.301 OA
BRANCH  11  12
ATOM     12  C   UNL     1      45.463  13.870  21.500  0.00  0.00    +0.235 C 
BRANCH  12  13
ATOM     13  C   UNL     1      46.583  14.044  20.507  0.00  0.00    -0.052 C 
ATOM     14  C   UNL     1      46.400  13.722  19.250  0.00  0.00    -0.096 C 
ATOM     21  C   UNL     1      45.115  13.063  18.821  0.00  0.00    +0.078 C 
BRANCH  14  15
ATOM     15  C   UNL     1      47.474  14.013  18.234  0.00  0.00    +0.067 C 
BRANCH  15  16
ATOM     16  C   UNL     1      46.880  14.829  17.084  0.00  0.00    +0.056 C 
BRANCH  16  17
ATOM     17  C   UNL     1      46.274  16.096  17.627  0.00  0.00    -0.062 C 
ATOM     18  C   UNL     1      46.923  17.230  17.527  0.00  0.00    -0.130 C 
ATOM     19  C   UNL     1      46.263  18.517  17.950  0.00  0.00    +0.072 C 
ATOM     20  C   UNL     1      48.330  17.246  16.987  0.00  0.00    +0.072 C 
ENDBRANCH  16  17
ENDBRANCH  15  16
ENDBRANCH  14  15
ENDBRANCH  12  13
ENDBRANCH  11  12
ENDBRANCH  10  11
TORSDOF 8
ENDMDL
MODEL 6
REMARK VINA RESULT:      -6.5      3.786      7.263
REMARK  Name = ZINC14760755
REMARK  12 active torsions:
REMARK  status: ('A' for Active; 'I' for Inactive)
REMARK    1  A    between atoms: C1_1  and  C2_2
REMARK    2  A    between atoms: C6_6  and  O1_8
REMARK    3  A    between atoms: C12_14  and  O4_18
REMARK    4  A    between atoms: C14_16  and  O3_17
REMARK    5  A    between atoms: O4_18  and  C15_19
REMARK    6  A    between atoms: C15_19  and  C16_20
REMARK    7  A    between atoms: C17_21  and  C18_22
REMARK    8  A    between atoms: C17_21  and  C19_23
REMARK    9  A    between atoms: C19_23  and  C20_24
REMARK   10  A    between atoms: C20_24  and  C21_25
REMARK   11  A    between atoms: C22_26  and  C23_27
REMARK   12  A    between atoms: C22_26  and  C24_28
REMARK                            x       y       z     vdW  Elec       q    Type
REMARK                         _______ _______ _______ _____ _____    ______ ____
ROOT
ATOM      1  C   UNL     1      53.553  12.446  18.966  0.00  0.00    +0.101 C 
ATOM      2  C   UNL     1      52.245  13.009  18.473  0.00  0.00    -0.035 A 
ATOM      3  C   UNL     1      51.591  13.976  19.216  0.00  0.00    -0.009 A 
ATOM      4  C   UNL     1      50.388  14.507  18.778  0.00  0.00    -0.015 A 
ATOM      5  C   UNL     1      49.848  14.055  17.575  0.00  0.00    -0.192 A 
ATOM      6  C   UNL     1      48.572  14.620  17.092  0.00  0.00    +0.440 C 
ATOM      7  C   UNL     1      48.113  15.890  17.683  0.00  0.00    -0.229 A 
ATOM      8  C   UNL     1      48.669  16.334  18.884  0.00  0.00    +0.022 A 
ATOM      9  C   UNL     1      48.254  17.530  19.411  0.00  0.00    -0.033 A 
ATOM     10  C   UNL     1      47.285  18.292  18.766  0.00  0.00    +0.186 A 
ATOM     22  C   UNL     1      46.721  17.854  17.578  0.00  0.00    -0.114 A 
ATOM     23  C   UNL     1      47.130  16.649  17.030  0.00  0.00    +0.214 A 
ATOM     26  O   UNL     1      47.921  14.055  16.233  0.00  0.00    -0.425 OA
ATOM     27  C   UNL     1      50.509  13.075  16.825  0.00  0.00    +0.173 A 
ATOM     30  C   UNL     1      49.707  15.543  19.620  0.00  0.00    +0.168 C 
ATOM     31  C   UNL     1      51.711  12.554  17.283  0.00  0.00    -0.026 A 
ENDROOT
BRANCH  23  24
ATOM     24  O   UNL     1      46.584  16.207  15.869  0.00  0.00    -0.482 OA
ATOM     25  H   UNL     1      46.836  15.303  15.636  0.00  0.00    +0.403 HD
ENDBRANCH  23  24
BRANCH  27  28
ATOM     28  O   UNL     1      49.977  12.637  15.657  0.00  0.00    -0.479 OA
ATOM     29  H   UNL     1      50.388  13.018  14.870  0.00  0.00    +0.395 HD
ENDBRANCH  27  28
BRANCH  10  11
ATOM     11  O   UNL     1      46.889  19.473  19.305  0.00  0.00    -0.301 OA
BRANCH  11  12
ATOM     12  C   UNL     1      47.883  20.243  19.984  0.00  0.00    +0.235 C 
BRANCH  12  13
ATOM     13  C   UNL     1      48.818  20.858  18.975  0.00  0.00    -0.052 C 
ATOM     14  C   UNL     1      50.110  20.852  19.191  0.00  0.00    -0.096 C 
ATOM     21  C   UNL     1      50.652  20.344  20.502  0.00  0.00    +0.078 C 
BRANCH  14  15
ATOM     15  C   UNL     1      51.054  21.352  18.128  0.00  0.00    +0.067 C 
BRANCH  15  16
ATOM     16  C   UNL     1      52.248  20.402  18.019  0.00  0.00    +0.056 C 
BRANCH  16  17
ATOM     17  C   UNL     1      51.931  19.306  17.036  0.00  0.00    -0.062 C 
ATOM     18  C   UNL     1      52.012  18.051  17.404  0.00  0.00    -0.130 C 
ATOM     19  C   UNL     1      51.569  16.960  16.464  0.00  0.00    +0.072 C 
ATOM     20  C   UNL     1      52.547  17.700  18.767  0.00  0.00    +0.072 C 
ENDBRANCH  16  17
ENDBRANCH  15  16
ENDBRANCH  14  15
ENDBRANCH  12  13
ENDBRANCH  11  12
ENDBRANCH  10  11
TORSDOF 8
ENDMDL
MODEL 7
REMARK VINA RESULT:      -6.4      3.870      5.547
REMARK  Name = ZINC14760755
REMARK  12 active torsions:
REMARK  status: ('A' for Active; 'I' for Inactive)
REMARK    1  A    between atoms: C1_1  and  C2_2
REMARK    2  A    between atoms: C6_6  and  O1_8
REMARK    3  A    between atoms: C12_14  and  O4_18
REMARK    4  A    between atoms: C14_16  and  O3_17
REMARK    5  A    between atoms: O4_18  and  C15_19
REMARK    6  A    between atoms: C15_19  and  C16_20
REMARK    7  A    between atoms: C17_21  and  C18_22
REMARK    8  A    between atoms: C17_21  and  C19_23
REMARK    9  A    between atoms: C19_23  and  C20_24
REMARK   10  A    between atoms: C20_24  and  C21_25
REMARK   11  A    between atoms: C22_26  and  C23_27
REMARK   12  A    between atoms: C22_26  and  C24_28
REMARK                            x       y       z     vdW  Elec       q    Type
REMARK                         _______ _______ _______ _____ _____    ______ ____
ROOT
ATOM      1  C   UNL     1      39.294  21.243  18.396  0.00  0.00    +0.101 C 
ATOM      2  C   UNL     1      40.669  21.048  18.979  0.00  0.00    -0.035 A 
ATOM      3  C   UNL     1      40.961  19.887  19.674  0.00  0.00    -0.009 A 
ATOM      4  C   UNL     1      42.221  19.688  20.216  0.00  0.00    -0.015 A 
ATOM      5  C   UNL     1      43.191  20.675  20.049  0.00  0.00    -0.192 A 
ATOM      6  C   UNL     1      44.541  20.471  20.612  0.00  0.00    +0.440 C 
ATOM      7  C   UNL     1      44.931  19.101  20.991  0.00  0.00    -0.229 A 
ATOM      8  C   UNL     1      43.947  18.122  21.147  0.00  0.00    +0.022 A 
ATOM      9  C   UNL     1      44.324  16.843  21.473  0.00  0.00    -0.033 A 
ATOM     10  C   UNL     1      45.664  16.523  21.656  0.00  0.00    +0.186 A 
ATOM     22  C   UNL     1      46.646  17.491  21.512  0.00  0.00    -0.114 A 
ATOM     23  C   UNL     1      46.285  18.787  21.181  0.00  0.00    +0.214 A 
ATOM     26  O   UNL     1      45.307  21.405  20.760  0.00  0.00    -0.425 OA
ATOM     27  C   UNL     1      42.895  21.850  19.348  0.00  0.00    +0.173 A 
ATOM     30  C   UNL     1      42.490  18.422  20.971  0.00  0.00    +0.168 C 
ATOM     31  C   UNL     1      41.626  22.030  18.816  0.00  0.00    -0.026 A 
ENDROOT
BRANCH  23  24
ATOM     24  O   UNL     1      47.235  19.745  21.041  0.00  0.00    -0.482 OA
ATOM     25  H   UNL     1      48.016  19.455  20.550  0.00  0.00    +0.403 HD
ENDBRANCH  23  24
BRANCH  27  28
ATOM     28  O   UNL     1      43.843  22.807  19.191  0.00  0.00    -0.479 OA
ATOM     29  H   UNL     1      43.815  23.502  19.863  0.00  0.00    +0.395 HD
ENDBRANCH  27  28
BRANCH  10  11
ATOM     11  O   UNL     1      46.014  15.252  21.979  0.00  0.00    -0.301 OA
BRANCH  11  12
ATOM     12  C   UNL     1      46.948  14.597  21.118  0.00  0.00    +0.235 C 
BRANCH  12  13
ATOM     13  C   UNL     1      46.218  13.619  20.235  0.00  0.00    -0.052 C 
ATOM     14  C   UNL     1      46.009  13.905  18.974  0.00  0.00    -0.096 C 
ATOM     21  C   UNL     1      46.386  15.261  18.436  0.00  0.00    +0.078 C 
BRANCH  14  15
ATOM     15  C   UNL     1      45.392  12.877  18.060  0.00  0.00    +0.067 C 
BRANCH  15  16
ATOM     16  C   UNL     1      46.437  11.819  17.705  0.00  0.00    +0.056 C 
BRANCH  16  17
ATOM     17  C   UNL     1      47.302  12.324  16.580  0.00  0.00    -0.062 C 
ATOM     18  C   UNL     1      47.136  11.862  15.366  0.00  0.00    -0.130 C 
ATOM     19  C   UNL     1      47.909  12.461  14.219  0.00  0.00    +0.072 C 
ATOM     20  C   UNL     1      46.171  10.733  15.116  0.00  0.00    +0.072 C 
ENDBRANCH  16  17
ENDBRANCH  15  16
ENDBRANCH  14  15
ENDBRANCH  12  13
ENDBRANCH  11  12
ENDBRANCH  10  11
TORSDOF 8
ENDMDL
MODEL 8
REMARK VINA RESULT:      -6.3      4.226      8.033
REMARK  Name = ZINC14760755
REMARK  12 active torsions:
REMARK  status: ('A' for Active; 'I' for Inactive)
REMARK    1  A    between atoms: C1_1  and  C2_2
REMARK    2  A    between atoms: C6_6  and  O1_8
REMARK    3  A    between atoms: C12_14  and  O4_18
REMARK    4  A    between atoms: C14_16  and  O3_17
REMARK    5  A    between atoms: O4_18  and  C15_19
REMARK    6  A    between atoms: C15_19  and  C16_20
REMARK    7  A    between atoms: C17_21  and  C18_22
REMARK    8  A    between atoms: C17_21  and  C19_23
REMARK    9  A    between atoms: C19_23  and  C20_24
REMARK   10  A    between atoms: C20_24  and  C21_25
REMARK   11  A    between atoms: C22_26  and  C23_27
REMARK   12  A    between atoms: C22_26  and  C24_28
REMARK                            x       y       z     vdW  Elec       q    Type
REMARK                         _______ _______ _______ _____ _____    ______ ____
ROOT
ATOM      1  C   UNL     1      51.618  13.257  14.033  0.00  0.00    +0.101 C 
ATOM      2  C   UNL     1      50.349  13.053  14.818  0.00  0.00    -0.035 A 
ATOM      3  C   UNL     1      50.339  13.293  16.181  0.00  0.00    -0.009 A 
ATOM      4  C   UNL     1      49.181  13.114  16.920  0.00  0.00    -0.015 A 
ATOM      5  C   UNL     1      48.024  12.689  16.269  0.00  0.00    -0.192 A 
ATOM      6  C   UNL     1      46.779  12.503  17.044  0.00  0.00    +0.440 C 
ATOM      7  C   UNL     1      46.697  13.126  18.377  0.00  0.00    -0.229 A 
ATOM      8  C   UNL     1      47.865  13.554  19.012  0.00  0.00    +0.022 A 
ATOM      9  C   UNL     1      47.774  14.158  20.241  0.00  0.00    -0.033 A 
ATOM     10  C   UNL     1      46.539  14.337  20.854  0.00  0.00    +0.186 A 
ATOM     22  C   UNL     1      45.375  13.907  20.234  0.00  0.00    -0.114 A 
ATOM     23  C   UNL     1      45.448  13.297  18.992  0.00  0.00    +0.214 A 
ATOM     26  O   UNL     1      45.852  11.855  16.595  0.00  0.00    -0.425 OA
ATOM     27  C   UNL     1      48.034  12.443  14.892  0.00  0.00    +0.173 A 
ATOM     30  C   UNL     1      49.218  13.373  18.396  0.00  0.00    +0.168 C 
ATOM     31  C   UNL     1      49.205  12.627  14.171  0.00  0.00    -0.026 A 
ENDROOT
BRANCH  23  24
ATOM     24  O   UNL     1      44.318  12.868  18.376  0.00  0.00    -0.482 OA
ATOM     25  H   UNL     1      44.465  12.518  17.486  0.00  0.00    +0.403 HD
ENDBRANCH  23  24
BRANCH  27  28
ATOM     28  O   UNL     1      46.905  12.027  14.264  0.00  0.00    -0.479 OA
ATOM     29  H   UNL     1      46.088  12.308  14.697  0.00  0.00    +0.395 HD
ENDBRANCH  27  28
BRANCH  10  11
ATOM     11  O   UNL     1      46.472  14.936  22.070  0.00  0.00    -0.301 OA
BRANCH  11  12
ATOM     12  C   UNL     1      45.642  16.095  22.177  0.00  0.00    +0.235 C 
BRANCH  12  13
ATOM     13  C   UNL     1      46.351  17.278  21.571  0.00  0.00    -0.052 C 
ATOM     14  C   UNL     1      45.760  17.992  20.645  0.00  0.00    -0.096 C 
ATOM     21  C   UNL     1      44.425  17.558  20.097  0.00  0.00    +0.078 C 
BRANCH  14  15
ATOM     15  C   UNL     1      46.414  19.247  20.129  0.00  0.00    +0.067 C 
BRANCH  15  16
ATOM     16  C   UNL     1      46.631  19.125  18.620  0.00  0.00    +0.056 C 
BRANCH  16  17
ATOM     17  C   UNL     1      47.961  18.467  18.354  0.00  0.00    -0.062 C 
ATOM     18  C   UNL     1      48.018  17.362  17.654  0.00  0.00    -0.130 C 
ATOM     19  C   UNL     1      49.354  16.776  17.277  0.00  0.00    +0.072 C 
ATOM     20  C   UNL     1      46.746  16.677  17.224  0.00  0.00    +0.072 C 
ENDBRANCH  16  17
ENDBRANCH  15  16
ENDBRANCH  14  15
ENDBRANCH  12  13
ENDBRANCH  11  12
ENDBRANCH  10  11
TORSDOF 8
ENDMDL
MODEL 9
REMARK VINA RESULT:      -6.2      3.451      6.908
REMARK  Name = ZINC14760755
REMARK  12 active torsions:
REMARK  status: ('A' for Active; 'I' for Inactive)
REMARK    1  A    between atoms: C1_1  and  C2_2
REMARK    2  A    between atoms: C6_6  and  O1_8
REMARK    3  A    between atoms: C12_14  and  O4_18
REMARK    4  A    between atoms: C14_16  and  O3_17
REMARK    5  A    between atoms: O4_18  and  C15_19
REMARK    6  A    between atoms: C15_19  and  C16_20
REMARK    7  A    between atoms: C17_21  and  C18_22
REMARK    8  A    between atoms: C17_21  and  C19_23
REMARK    9  A    between atoms: C19_23  and  C20_24
REMARK   10  A    between atoms: C20_24  and  C21_25
REMARK   11  A    between atoms: C22_26  and  C23_27
REMARK   12  A    between atoms: C22_26  and  C24_28
REMARK                            x       y       z     vdW  Elec       q    Type
REMARK                         _______ _______ _______ _____ _____    ______ ____
ROOT
ATOM      1  C   UNL     1      51.003  11.521  14.547  0.00  0.00    +0.101 C 
ATOM      2  C   UNL     1      50.020  12.085  15.539  0.00  0.00    -0.035 A 
ATOM      3  C   UNL     1      50.002  13.446  15.788  0.00  0.00    -0.009 A 
ATOM      4  C   UNL     1      49.104  13.985  16.695  0.00  0.00    -0.015 A 
ATOM      5  C   UNL     1      48.216  13.134  17.352  0.00  0.00    -0.192 A 
ATOM      6  C   UNL     1      47.246  13.696  18.315  0.00  0.00    +0.440 C 
ATOM      7  C   UNL     1      46.989  15.147  18.267  0.00  0.00    -0.229 A 
ATOM      8  C   UNL     1      47.884  15.985  17.598  0.00  0.00    +0.022 A 
ATOM      9  C   UNL     1      47.621  17.330  17.536  0.00  0.00    -0.033 A 
ATOM     10  C   UNL     1      46.484  17.859  18.138  0.00  0.00    +0.186 A 
ATOM     22  C   UNL     1      45.595  17.036  18.812  0.00  0.00    -0.114 A 
ATOM     23  C   UNL     1      45.844  15.675  18.882  0.00  0.00    +0.214 A 
ATOM     26  O   UNL     1      46.678  12.984  19.121  0.00  0.00    -0.425 OA
ATOM     27  C   UNL     1      48.236  11.758  17.102  0.00  0.00    +0.173 A 
ATOM     30  C   UNL     1      49.127  15.463  16.944  0.00  0.00    +0.168 C 
ATOM     31  C   UNL     1      49.146  11.239  16.192  0.00  0.00    -0.026 A 
ENDROOT
BRANCH  23  24
ATOM     24  O   UNL     1      44.985  14.857  19.542  0.00  0.00    -0.482 OA
ATOM     25  H   UNL     1      45.149  14.801  20.493  0.00  0.00    +0.403 HD
ENDBRANCH  23  24
BRANCH  27  28
ATOM     28  O   UNL     1      47.372  10.935  17.747  0.00  0.00    -0.479 OA
ATOM     29  H   UNL     1      46.444  11.191  17.658  0.00  0.00    +0.395 HD
ENDBRANCH  27  28
BRANCH  10  11
ATOM     11  O   UNL     1      46.243  19.193  18.065  0.00  0.00    -0.301 OA
BRANCH  11  12
ATOM     12  C   UNL     1      46.370  19.943  19.274  0.00  0.00    +0.235 C 
BRANCH  12  13
ATOM     13  C   UNL     1      47.693  20.663  19.283  0.00  0.00    -0.052 C 
ATOM     14  C   UNL     1      48.687  20.197  19.999  0.00  0.00    -0.096 C 
ATOM     21  C   UNL     1      48.471  19.017  20.910  0.00  0.00    +0.078 C 
BRANCH  14  15
ATOM     15  C   UNL     1      50.046  20.843  19.911  0.00  0.00    +0.067 C 
BRANCH  15  16
ATOM     16  C   UNL     1      50.462  20.954  18.443  0.00  0.00    +0.056 C 
BRANCH  16  17
ATOM     17  C   UNL     1      50.670  19.575  17.873  0.00  0.00    -0.062 C 
ATOM     18  C   UNL     1      51.334  19.420  16.755  0.00  0.00    -0.130 C 
ATOM     19  C   UNL     1      51.655  18.036  16.253  0.00  0.00    +0.072 C 
ATOM     20  C   UNL     1      51.779  20.628  15.970  0.00  0.00    +0.072 C 
ENDBRANCH  16  17
ENDBRANCH  15  16
ENDBRANCH  14  15
ENDBRANCH  12  13
ENDBRANCH  11  12
ENDBRANCH  10  11
TORSDOF 8
ENDMDL
