MODEL 1
REMARK VINA RESULT:      -5.3      0.000      0.000
REMARK  Name = ZINC95486376
REMARK  19 active torsions:
REMARK  status: ('A' for Active; 'I' for Inactive)
REMARK    1  A    between atoms: C1_1  and  C2_2
REMARK    2  A    between atoms: C5_5  and  C36_45
REMARK    3  A    between atoms: C7_7  and  C13_15
REMARK    4  A    between atoms: C8_8  and  O2_14
REMARK    5  A    between atoms: C10_10  and  O1_12
REMARK    6  A    between atoms: O1_12  and  C12_13
REMARK    7  A    between atoms: C15_17  and  C25_29
REMARK    8  A    between atoms: C18_20  and  C24_28
REMARK    9  A    between atoms: C20_22  and  O4_26
REMARK   10  A    between atoms: C22_24  and  O3_25
REMARK   11  A    between atoms: O4_26  and  C23_27
REMARK   12  A    between atoms: C26_30  and  O6_44
REMARK   13  A    between atoms: C28_32  and  O5_43
REMARK   14  A    between atoms: C32_36  and  C35_42
REMARK   15  A    between atoms: C33_39  and  C34_41
REMARK   16  A    between atoms: C37_46  and  O8_60
REMARK   17  A    between atoms: C39_48  and  O7_59
REMARK   18  A    between atoms: C43_52  and  C47_58
REMARK   19  A    between atoms: C45_55  and  C46_57
REMARK                            x       y       z     vdW  Elec       q    Type
REMARK                         _______ _______ _______ _____ _____    ______ ____
ROOT
ATOM     24  C   UNL     1      49.596  16.269  19.902  0.00  0.00    -0.091 A 
ATOM     25  C   UNL     1      48.256  16.166  20.300  0.00  0.00    +0.075 A 
ATOM     26  C   UNL     1      47.610  17.240  20.881  0.00  0.00    -0.082 A 
ATOM     45  C   UNL     1      48.307  18.458  21.078  0.00  0.00    +0.030 A 
ATOM     46  C   UNL     1      47.676  19.563  21.666  0.00  0.00    -0.046 A 
ATOM     47  C   UNL     1      48.365  20.725  21.847  0.00  0.00    -0.017 A 
ATOM     48  C   UNL     1      47.675  21.905  22.480  0.00  0.00    +0.094 C 
ATOM     49  C   UNL     1      49.695  20.838  21.455  0.00  0.00    -0.099 A 
ATOM     50  C   UNL     1      50.350  19.774  20.874  0.00  0.00    +0.171 A 
ATOM     53  C   UNL     1      49.661  18.561  20.676  0.00  0.00    -0.107 A 
ATOM     54  C   UNL     1      50.300  17.452  20.090  0.00  0.00    +0.200 A 
ENDROOT
BRANCH  26  27
ATOM     27  C   UNL     1      46.194  17.119  21.297  0.00  0.00    -0.054 A 
ATOM     28  C   UNL     1      45.790  16.041  22.092  0.00  0.00    +0.172 A 
ATOM     31  C   UNL     1      44.465  15.935  22.477  0.00  0.00    -0.017 A 
ATOM     32  C   UNL     1      43.549  16.893  22.074  0.00  0.00    +0.160 A 
ATOM     35  C   UNL     1      43.949  17.968  21.283  0.00  0.00    -0.166 A 
ATOM     36  C   UNL     1      42.912  18.979  20.869  0.00  0.00    +0.242 C 
ATOM     37  C   UNL     1      41.986  19.266  22.053  0.00  0.00    +0.094 C 
ATOM     38  N   UNL     1      43.554  20.235  20.456  0.00  0.00    -0.505 N 
ATOM     39  H   UNL     1      42.855  20.865  20.090  0.00  0.00    +0.431 HD
ATOM     40  H   UNL     1      44.015  20.661  21.246  0.00  0.00    +0.427 HD
ATOM     41  C   UNL     1      44.543  19.936  19.410  0.00  0.00    +0.172 C 
ATOM     42  C   UNL     1      45.002  21.236  18.744  0.00  0.00    +0.096 C 
ATOM     43  C   UNL     1      45.741  19.240  20.058  0.00  0.00    +0.135 C 
ATOM     44  C   UNL     1      45.265  18.085  20.901  0.00  0.00    -0.041 A 
BRANCH  28  29
ATOM     29  O   UNL     1      46.692  15.103  22.482  0.00  0.00    -0.480 OA
ATOM     30  H   UNL     1      46.293  14.292  22.825  0.00  0.00    +0.402 HD
ENDBRANCH  28  29
BRANCH  32  33
ATOM     33  O   UNL     1      42.249  16.784  22.454  0.00  0.00    -0.490 OA
ATOM     34  H   UNL     1      41.771  17.625  22.466  0.00  0.00    +0.402 HD
ENDBRANCH  32  33
ENDBRANCH  26  27
BRANCH  24  23
ATOM      1  C   UNL     1      52.588  10.279  15.615  0.00  0.00    +0.094 C 
ATOM      2  C   UNL     1      51.900  11.466  16.241  0.00  0.00    -0.026 A 
ATOM      3  C   UNL     1      52.180  11.799  17.532  0.00  0.00    -0.021 A 
ATOM      4  C   UNL     1      51.547  12.900  18.126  0.00  0.00    +0.026 A 
ATOM      5  C   UNL     1      51.825  13.265  19.466  0.00  0.00    -0.036 A 
ATOM     22  C   UNL     1      51.188  14.355  20.026  0.00  0.00    +0.055 A 
ATOM     23  C   UNL     1      50.268  15.105  19.281  0.00  0.00    -0.095 A 
ATOM     57  C   UNL     1      49.982  14.765  17.964  0.00  0.00    +0.181 A 
ATOM     60  C   UNL     1      50.620  13.659  17.372  0.00  0.00    -0.101 A 
ATOM     61  C   UNL     1      50.348  13.293  16.038  0.00  0.00    +0.158 A 
ATOM     64  C   UNL     1      50.994  12.208  15.489  0.00  0.00    -0.093 A 
BRANCH   5   6
ATOM      6  C   UNL     1      52.793  12.478  20.265  0.00  0.00    -0.086 A 
ATOM      7  C   UNL     1      52.360  11.352  20.968  0.00  0.00    +0.135 A 
ATOM     10  C   UNL     1      53.269  10.621  21.714  0.00  0.00    -0.039 A 
ATOM     11  C   UNL     1      54.596  11.014  21.758  0.00  0.00    +0.131 A 
ATOM     14  C   UNL     1      55.031  12.139  21.057  0.00  0.00    -0.101 A 
ATOM     15  C   UNL     1      56.489  12.507  21.161  0.00  0.00    +0.036 C 
ATOM     16  C   UNL     1      56.742  13.192  22.505  0.00  0.00    +0.035 C 
ATOM     17  C   UNL     1      56.889  13.442  20.017  0.00  0.00    +0.024 C 
ATOM     18  C   UNL     1      55.894  14.607  19.986  0.00  0.00    -0.017 C 
ATOM     19  C   UNL     1      56.393  15.687  19.023  0.00  0.00    +0.021 C 
ATOM     20  C   UNL     1      54.545  14.076  19.508  0.00  0.00    +0.082 C 
ATOM     21  C   UNL     1      54.139  12.865  20.306  0.00  0.00    -0.023 A 
BRANCH   7   8
ATOM      8  O   UNL     1      51.055  10.976  20.923  0.00  0.00    -0.486 OA
ATOM      9  H   UNL     1      50.441  11.649  21.250  0.00  0.00    +0.385 HD
ENDBRANCH   7   8
BRANCH  11  12
ATOM     12  O   UNL     1      55.485  10.295  22.492  0.00  0.00    -0.491 OA
ATOM     13  H   UNL     1      55.270   9.354  22.559  0.00  0.00    +0.392 HD
ENDBRANCH  11  12
ENDBRANCH   5   6
BRANCH  57  58
ATOM     58  O   UNL     1      49.089  15.499  17.251  0.00  0.00    -0.463 OA
ATOM     59  H   UNL     1      49.496  16.117  16.630  0.00  0.00    +0.381 HD
ENDBRANCH  57  58
BRANCH  61  62
ATOM     62  O   UNL     1      49.461  14.008  15.300  0.00  0.00    -0.295 OA
ATOM     63  C   UNL     1      48.412  13.276  14.660  0.00  0.00    +0.240 C 
ENDBRANCH  61  62
ENDBRANCH  24  23
BRANCH  50  51
ATOM     51  O   UNL     1      51.648  19.895  20.495  0.00  0.00    -0.291 OA
ATOM     52  C   UNL     1      52.532  20.550  21.406  0.00  0.00    +0.246 C 
ENDBRANCH  50  51
BRANCH  54  55
ATOM     55  O   UNL     1      51.599  17.539  19.707  0.00  0.00    -0.463 OA
ATOM     56  H   UNL     1      52.135  16.774  19.957  0.00  0.00    +0.393 HD
ENDBRANCH  54  55
TORSDOF 11
ENDMDL
MODEL 2
REMARK VINA RESULT:      -5.2      2.515      6.395
REMARK  Name = ZINC95486376
REMARK  19 active torsions:
REMARK  status: ('A' for Active; 'I' for Inactive)
REMARK    1  A    between atoms: C1_1  and  C2_2
REMARK    2  A    between atoms: C5_5  and  C36_45
REMARK    3  A    between atoms: C7_7  and  C13_15
REMARK    4  A    between atoms: C8_8  and  O2_14
REMARK    5  A    between atoms: C10_10  and  O1_12
REMARK    6  A    between atoms: O1_12  and  C12_13
REMARK    7  A    between atoms: C15_17  and  C25_29
REMARK    8  A    between atoms: C18_20  and  C24_28
REMARK    9  A    between atoms: C20_22  and  O4_26
REMARK   10  A    between atoms: C22_24  and  O3_25
REMARK   11  A    between atoms: O4_26  and  C23_27
REMARK   12  A    between atoms: C26_30  and  O6_44
REMARK   13  A    between atoms: C28_32  and  O5_43
REMARK   14  A    between atoms: C32_36  and  C35_42
REMARK   15  A    between atoms: C33_39  and  C34_41
REMARK   16  A    between atoms: C37_46  and  O8_60
REMARK   17  A    between atoms: C39_48  and  O7_59
REMARK   18  A    between atoms: C43_52  and  C47_58
REMARK   19  A    between atoms: C45_55  and  C46_57
REMARK                            x       y       z     vdW  Elec       q    Type
REMARK                         _______ _______ _______ _____ _____    ______ ____
ROOT
ATOM     24  C   UNL     1      49.085  14.219  19.016  0.00  0.00    -0.091 A 
ATOM     25  C   UNL     1      48.038  14.778  19.760  0.00  0.00    +0.075 A 
ATOM     26  C   UNL     1      46.727  14.420  19.508  0.00  0.00    -0.082 A 
ATOM     45  C   UNL     1      46.438  13.479  18.489  0.00  0.00    +0.030 A 
ATOM     46  C   UNL     1      45.117  13.098  18.212  0.00  0.00    -0.046 A 
ATOM     47  C   UNL     1      44.862  12.192  17.227  0.00  0.00    -0.017 A 
ATOM     48  C   UNL     1      43.438  11.791  16.940  0.00  0.00    +0.094 C 
ATOM     49  C   UNL     1      45.895  11.630  16.484  0.00  0.00    -0.099 A 
ATOM     50  C   UNL     1      47.205  11.979  16.725  0.00  0.00    +0.171 A 
ATOM     53  C   UNL     1      47.498  12.914  17.739  0.00  0.00    -0.107 A 
ATOM     54  C   UNL     1      48.825  13.298  18.009  0.00  0.00    +0.200 A 
ENDROOT
BRANCH  26  27
ATOM     27  C   UNL     1      45.628  15.017  20.301  0.00  0.00    -0.054 A 
ATOM     28  C   UNL     1      45.000  14.266  21.299  0.00  0.00    +0.172 A 
ATOM     31  C   UNL     1      43.974  14.831  22.036  0.00  0.00    -0.017 A 
ATOM     32  C   UNL     1      43.575  16.133  21.781  0.00  0.00    +0.160 A 
ATOM     35  C   UNL     1      44.199  16.883  20.786  0.00  0.00    -0.166 A 
ATOM     36  C   UNL     1      43.723  18.293  20.547  0.00  0.00    +0.242 C 
ATOM     37  C   UNL     1      43.452  18.969  21.891  0.00  0.00    +0.094 C 
ATOM     38  N   UNL     1      44.745  19.065  19.827  0.00  0.00    -0.505 N 
ATOM     39  H   UNL     1      44.374  19.973  19.589  0.00  0.00    +0.431 HD
ATOM     40  H   UNL     1      45.564  19.174  20.406  0.00  0.00    +0.427 HD
ATOM     41  C   UNL     1      45.104  18.341  18.598  0.00  0.00    +0.172 C 
ATOM     42  C   UNL     1      45.924  19.252  17.681  0.00  0.00    +0.096 C 
ATOM     43  C   UNL     1      45.935  17.115  18.980  0.00  0.00    +0.135 C 
ATOM     44  C   UNL     1      45.225  16.332  20.054  0.00  0.00    -0.041 A 
BRANCH  28  29
ATOM     29  O   UNL     1      45.394  12.989  21.544  0.00  0.00    -0.480 OA
ATOM     30  H   UNL     1      45.562  12.470  20.746  0.00  0.00    +0.402 HD
ENDBRANCH  28  29
BRANCH  32  33
ATOM     33  O   UNL     1      42.566  16.683  22.505  0.00  0.00    -0.490 OA
ATOM     34  H   UNL     1      42.056  16.041  23.020  0.00  0.00    +0.402 HD
ENDBRANCH  32  33
ENDBRANCH  26  27
BRANCH  24  23
ATOM      1  C   UNL     1      56.853  15.239  20.375  0.00  0.00    +0.094 C 
ATOM      2  C   UNL     1      55.433  14.827  20.081  0.00  0.00    -0.026 A 
ATOM      3  C   UNL     1      54.441  15.760  20.123  0.00  0.00    -0.021 A 
ATOM      4  C   UNL     1      53.116  15.389  19.852  0.00  0.00    +0.026 A 
ATOM      5  C   UNL     1      52.070  16.344  19.889  0.00  0.00    -0.036 A 
ATOM     22  C   UNL     1      50.774  15.951  19.617  0.00  0.00    +0.055 A 
ATOM     23  C   UNL     1      50.483  14.617  19.304  0.00  0.00    -0.095 A 
ATOM     57  C   UNL     1      51.494  13.665  19.260  0.00  0.00    +0.181 A 
ATOM     60  C   UNL     1      52.822  14.042  19.534  0.00  0.00    -0.101 A 
ATOM     61  C   UNL     1      53.867  13.096  19.496  0.00  0.00    +0.158 A 
ATOM     64  C   UNL     1      55.156  13.500  19.764  0.00  0.00    -0.093 A 
BRANCH   5   6
ATOM      6  C   UNL     1      52.365  17.757  20.221  0.00  0.00    -0.086 A 
ATOM      7  C   UNL     1      52.687  18.108  21.534  0.00  0.00    +0.135 A 
ATOM     10  C   UNL     1      52.961  19.431  21.838  0.00  0.00    -0.039 A 
ATOM     11  C   UNL     1      52.911  20.391  20.842  0.00  0.00    +0.131 A 
ATOM     14  C   UNL     1      52.588  20.043  19.531  0.00  0.00    -0.101 A 
ATOM     15  C   UNL     1      52.545  21.146  18.505  0.00  0.00    +0.036 C 
ATOM     16  C   UNL     1      51.243  21.932  18.663  0.00  0.00    +0.035 C 
ATOM     17  C   UNL     1      52.635  20.566  17.090  0.00  0.00    +0.024 C 
ATOM     18  C   UNL     1      51.570  19.472  16.957  0.00  0.00    -0.017 C 
ATOM     19  C   UNL     1      51.458  19.035  15.495  0.00  0.00    +0.021 C 
ATOM     20  C   UNL     1      51.992  18.283  17.818  0.00  0.00    +0.082 C 
ATOM     21  C   UNL     1      52.324  18.732  19.216  0.00  0.00    -0.023 A 
BRANCH   7   8
ATOM      8  O   UNL     1      52.731  17.160  22.505  0.00  0.00    -0.486 OA
ATOM      9  H   UNL     1      53.388  16.468  22.350  0.00  0.00    +0.385 HD
ENDBRANCH   7   8
BRANCH  11  12
ATOM     12  O   UNL     1      53.179  21.688  21.146  0.00  0.00    -0.491 OA
ATOM     13  H   UNL     1      52.427  22.284  21.023  0.00  0.00    +0.392 HD
ENDBRANCH  11  12
ENDBRANCH   5   6
BRANCH  57  58
ATOM     58  O   UNL     1      51.200  12.374  18.956  0.00  0.00    -0.463 OA
ATOM     59  H   UNL     1      50.449  12.273  18.356  0.00  0.00    +0.381 HD
ENDBRANCH  57  58
BRANCH  61  62
ATOM     62  O   UNL     1      53.605  11.798  19.194  0.00  0.00    -0.295 OA
ATOM     63  C   UNL     1      53.958  10.820  20.175  0.00  0.00    +0.240 C 
ENDBRANCH  61  62
ENDBRANCH  24  23
BRANCH  50  51
ATOM     51  O   UNL     1      48.207  11.425  15.994  0.00  0.00    -0.291 OA
ATOM     52  C   UNL     1      48.146  11.596  14.577  0.00  0.00    +0.246 C 
ENDBRANCH  50  51
BRANCH  54  55
ATOM     55  O   UNL     1      49.847  12.767  17.291  0.00  0.00    -0.463 OA
ATOM     56  H   UNL     1      49.651  11.899  16.911  0.00  0.00    +0.393 HD
ENDBRANCH  54  55
TORSDOF 11
ENDMDL
MODEL 3
REMARK VINA RESULT:      -4.9      1.627      5.147
REMARK  Name = ZINC95486376
REMARK  19 active torsions:
REMARK  status: ('A' for Active; 'I' for Inactive)
REMARK    1  A    between atoms: C1_1  and  C2_2
REMARK    2  A    between atoms: C5_5  and  C36_45
REMARK    3  A    between atoms: C7_7  and  C13_15
REMARK    4  A    between atoms: C8_8  and  O2_14
REMARK    5  A    between atoms: C10_10  and  O1_12
REMARK    6  A    between atoms: O1_12  and  C12_13
REMARK    7  A    between atoms: C15_17  and  C25_29
REMARK    8  A    between atoms: C18_20  and  C24_28
REMARK    9  A    between atoms: C20_22  and  O4_26
REMARK   10  A    between atoms: C22_24  and  O3_25
REMARK   11  A    between atoms: O4_26  and  C23_27
REMARK   12  A    between atoms: C26_30  and  O6_44
REMARK   13  A    between atoms: C28_32  and  O5_43
REMARK   14  A    between atoms: C32_36  and  C35_42
REMARK   15  A    between atoms: C33_39  and  C34_41
REMARK   16  A    between atoms: C37_46  and  O8_60
REMARK   17  A    between atoms: C39_48  and  O7_59
REMARK   18  A    between atoms: C43_52  and  C47_58
REMARK   19  A    between atoms: C45_55  and  C46_57
REMARK                            x       y       z     vdW  Elec       q    Type
REMARK                         _______ _______ _______ _____ _____    ______ ____
ROOT
ATOM     24  C   UNL     1      49.724  16.635  20.081  0.00  0.00    -0.091 A 
ATOM     25  C   UNL     1      48.369  16.515  20.415  0.00  0.00    +0.075 A 
ATOM     26  C   UNL     1      47.680  17.585  20.953  0.00  0.00    -0.082 A 
ATOM     45  C   UNL     1      48.349  18.815  21.171  0.00  0.00    +0.030 A 
ATOM     46  C   UNL     1      47.675  19.917  21.717  0.00  0.00    -0.046 A 
ATOM     47  C   UNL     1      48.337  21.090  21.919  0.00  0.00    -0.017 A 
ATOM     48  C   UNL     1      47.600  22.266  22.505  0.00  0.00    +0.094 C 
ATOM     49  C   UNL     1      49.683  21.219  21.590  0.00  0.00    -0.099 A 
ATOM     50  C   UNL     1      50.380  20.160  21.052  0.00  0.00    +0.171 A 
ATOM     53  C   UNL     1      49.719  18.934  20.833  0.00  0.00    -0.107 A 
ATOM     54  C   UNL     1      50.402  17.829  20.290  0.00  0.00    +0.200 A 
ENDROOT
BRANCH  26  27
ATOM     27  C   UNL     1      46.247  17.447  21.301  0.00  0.00    -0.054 A 
ATOM     28  C   UNL     1      45.818  16.363  22.074  0.00  0.00    +0.172 A 
ATOM     31  C   UNL     1      44.478  16.241  22.396  0.00  0.00    -0.017 A 
ATOM     32  C   UNL     1      43.571  17.190  21.952  0.00  0.00    +0.160 A 
ATOM     35  C   UNL     1      43.996  18.271  21.181  0.00  0.00    -0.166 A 
ATOM     36  C   UNL     1      42.967  19.271  20.721  0.00  0.00    +0.242 C 
ATOM     37  C   UNL     1      41.984  19.544  21.860  0.00  0.00    +0.094 C 
ATOM     38  N   UNL     1      43.614  20.534  20.341  0.00  0.00    -0.505 N 
ATOM     39  H   UNL     1      42.926  21.157  19.943  0.00  0.00    +0.431 HD
ATOM     40  H   UNL     1      44.032  20.964  21.152  0.00  0.00    +0.427 HD
ATOM     41  C   UNL     1      44.655  20.249  19.342  0.00  0.00    +0.172 C 
ATOM     42  C   UNL     1      45.130  21.555  18.701  0.00  0.00    +0.096 C 
ATOM     43  C   UNL     1      45.829  19.565  20.045  0.00  0.00    +0.135 C 
ATOM     44  C   UNL     1      45.327  18.404  20.863  0.00  0.00    -0.041 A 
BRANCH  28  29
ATOM     29  O   UNL     1      46.712  15.435  22.505  0.00  0.00    -0.480 OA
ATOM     30  H   UNL     1      46.418  14.938  23.281  0.00  0.00    +0.402 HD
ENDBRANCH  28  29
BRANCH  32  33
ATOM     33  O   UNL     1      42.256  17.065  22.269  0.00  0.00    -0.490 OA
ATOM     34  H   UNL     1      42.067  17.169  23.212  0.00  0.00    +0.402 HD
ENDBRANCH  32  33
ENDBRANCH  26  27
BRANCH  24  23
ATOM      1  C   UNL     1      54.081  10.307  18.034  0.00  0.00    +0.094 C 
ATOM      2  C   UNL     1      53.353  11.486  18.626  0.00  0.00    -0.026 A 
ATOM      3  C   UNL     1      52.475  12.189  17.857  0.00  0.00    -0.021 A 
ATOM      4  C   UNL     1      51.792  13.287  18.397  0.00  0.00    +0.026 A 
ATOM      5  C   UNL     1      50.874  14.031  17.614  0.00  0.00    -0.036 A 
ATOM     22  C   UNL     1      50.214  15.109  18.171  0.00  0.00    +0.055 A 
ATOM     23  C   UNL     1      50.443  15.475  19.504  0.00  0.00    -0.095 A 
ATOM     57  C   UNL     1      51.337  14.759  20.290  0.00  0.00    +0.181 A 
ATOM     60  C   UNL     1      52.021  13.656  19.744  0.00  0.00    -0.101 A 
ATOM     61  C   UNL     1      52.934  12.912  20.519  0.00  0.00    +0.158 A 
ATOM     64  C   UNL     1      53.582  11.837  19.954  0.00  0.00    -0.093 A 
BRANCH   5   6
ATOM      6  C   UNL     1      50.625  13.655  16.203  0.00  0.00    -0.086 A 
ATOM      7  C   UNL     1      51.525  14.052  15.211  0.00  0.00    +0.135 A 
ATOM     10  C   UNL     1      51.287  13.699  13.894  0.00  0.00    -0.039 A 
ATOM     11  C   UNL     1      50.162  12.959  13.571  0.00  0.00    +0.131 A 
ATOM     14  C   UNL     1      49.261  12.563  14.561  0.00  0.00    -0.101 A 
ATOM     15  C   UNL     1      48.055  11.767  14.131  0.00  0.00    +0.036 C 
ATOM     16  C   UNL     1      47.024  12.711  13.509  0.00  0.00    +0.035 C 
ATOM     17  C   UNL     1      47.439  11.038  15.328  0.00  0.00    +0.024 C 
ATOM     18  C   UNL     1      47.215  12.064  16.444  0.00  0.00    -0.017 C 
ATOM     19  C   UNL     1      46.380  11.436  17.563  0.00  0.00    +0.021 C 
ATOM     20  C   UNL     1      48.576  12.486  16.993  0.00  0.00    +0.082 C 
ATOM     21  C   UNL     1      49.493  12.899  15.873  0.00  0.00    -0.023 A 
BRANCH   7   8
ATOM      8  O   UNL     1      52.625  14.780  15.535  0.00  0.00    -0.486 OA
ATOM      9  H   UNL     1      53.370  14.249  15.847  0.00  0.00    +0.385 HD
ENDBRANCH   7   8
BRANCH  11  12
ATOM     12  O   UNL     1      49.931  12.616  12.278  0.00  0.00    -0.491 OA
ATOM     13  H   UNL     1      49.003  12.431  12.079  0.00  0.00    +0.392 HD
ENDBRANCH  11  12
ENDBRANCH   5   6
BRANCH  57  58
ATOM     58  O   UNL     1      51.552  15.122  21.581  0.00  0.00    -0.463 OA
ATOM     59  H   UNL     1      50.975  15.834  21.889  0.00  0.00    +0.381 HD
ENDBRANCH  57  58
BRANCH  61  62
ATOM     62  O   UNL     1      53.169  13.251  21.812  0.00  0.00    -0.295 OA
ATOM     63  C   UNL     1      54.525  13.192  22.263  0.00  0.00    +0.240 C 
ENDBRANCH  61  62
ENDBRANCH  24  23
BRANCH  50  51
ATOM     51  O   UNL     1      51.694  20.295  20.735  0.00  0.00    -0.291 OA
ATOM     52  C   UNL     1      52.075  21.489  20.049  0.00  0.00    +0.246 C 
ENDBRANCH  50  51
BRANCH  54  55
ATOM     55  O   UNL     1      51.716  17.932  19.970  0.00  0.00    -0.463 OA
ATOM     56  H   UNL     1      51.981  18.814  19.674  0.00  0.00    +0.393 HD
ENDBRANCH  54  55
TORSDOF 11
ENDMDL
MODEL 4
REMARK VINA RESULT:      -4.8      2.863     10.075
REMARK  Name = ZINC95486376
REMARK  19 active torsions:
REMARK  status: ('A' for Active; 'I' for Inactive)
REMARK    1  A    between atoms: C1_1  and  C2_2
REMARK    2  A    between atoms: C5_5  and  C36_45
REMARK    3  A    between atoms: C7_7  and  C13_15
REMARK    4  A    between atoms: C8_8  and  O2_14
REMARK    5  A    between atoms: C10_10  and  O1_12
REMARK    6  A    between atoms: O1_12  and  C12_13
REMARK    7  A    between atoms: C15_17  and  C25_29
REMARK    8  A    between atoms: C18_20  and  C24_28
REMARK    9  A    between atoms: C20_22  and  O4_26
REMARK   10  A    between atoms: C22_24  and  O3_25
REMARK   11  A    between atoms: O4_26  and  C23_27
REMARK   12  A    between atoms: C26_30  and  O6_44
REMARK   13  A    between atoms: C28_32  and  O5_43
REMARK   14  A    between atoms: C32_36  and  C35_42
REMARK   15  A    between atoms: C33_39  and  C34_41
REMARK   16  A    between atoms: C37_46  and  O8_60
REMARK   17  A    between atoms: C39_48  and  O7_59
REMARK   18  A    between atoms: C43_52  and  C47_58
REMARK   19  A    between atoms: C45_55  and  C46_57
REMARK                            x       y       z     vdW  Elec       q    Type
REMARK                         _______ _______ _______ _____ _____    ______ ____
ROOT
ATOM     24  C   UNL     1      50.030  16.457  20.050  0.00  0.00    -0.091 A 
ATOM     25  C   UNL     1      50.146  15.777  18.830  0.00  0.00    +0.075 A 
ATOM     26  C   UNL     1      51.365  15.274  18.418  0.00  0.00    -0.082 A 
ATOM     45  C   UNL     1      52.510  15.447  19.235  0.00  0.00    +0.030 A 
ATOM     46  C   UNL     1      53.760  14.948  18.841  0.00  0.00    -0.046 A 
ATOM     47  C   UNL     1      54.848  15.125  19.641  0.00  0.00    -0.017 A 
ATOM     48  C   UNL     1      56.185  14.582  19.206  0.00  0.00    +0.094 C 
ATOM     49  C   UNL     1      54.743  15.798  20.855  0.00  0.00    -0.099 A 
ATOM     50  C   UNL     1      53.533  16.304  21.276  0.00  0.00    +0.171 A 
ATOM     53  C   UNL     1      52.392  16.134  20.467  0.00  0.00    -0.107 A 
ATOM     54  C   UNL     1      51.140  16.643  20.864  0.00  0.00    +0.200 A 
ENDROOT
BRANCH  26  27
ATOM     27  C   UNL     1      51.476  14.557  17.127  0.00  0.00    -0.054 A 
ATOM     28  C   UNL     1      51.863  15.249  15.975  0.00  0.00    +0.172 A 
ATOM     31  C   UNL     1      51.965  14.572  14.773  0.00  0.00    -0.017 A 
ATOM     32  C   UNL     1      51.681  13.217  14.716  0.00  0.00    +0.160 A 
ATOM     35  C   UNL     1      51.294  12.525  15.862  0.00  0.00    -0.166 A 
ATOM     36  C   UNL     1      50.993  11.054  15.744  0.00  0.00    +0.242 C 
ATOM     37  C   UNL     1      52.027  10.399  14.826  0.00  0.00    +0.094 C 
ATOM     38  N   UNL     1      51.056  10.409  17.063  0.00  0.00    -0.505 N 
ATOM     39  H   UNL     1      50.757   9.448  16.981  0.00  0.00    +0.431 HD
ATOM     40  H   UNL     1      52.000  10.441  17.417  0.00  0.00    +0.427 HD
ATOM     41  C   UNL     1      50.161  11.127  17.982  0.00  0.00    +0.172 C 
ATOM     42  C   UNL     1      49.964  10.308  19.260  0.00  0.00    +0.096 C 
ATOM     43  C   UNL     1      50.797  12.474  18.328  0.00  0.00    +0.135 C 
ATOM     44  C   UNL     1      51.198  13.189  17.063  0.00  0.00    -0.041 A 
BRANCH  28  29
ATOM     29  O   UNL     1      52.138  16.578  16.036  0.00  0.00    -0.480 OA
ATOM     30  H   UNL     1      53.028  16.781  16.356  0.00  0.00    +0.402 HD
ENDBRANCH  28  29
BRANCH  32  33
ATOM     33  O   UNL     1      51.781  12.557  13.533  0.00  0.00    -0.490 OA
ATOM     34  H   UNL     1      52.207  13.069  12.831  0.00  0.00    +0.402 HD
ENDBRANCH  32  33
ENDBRANCH  26  27
BRANCH  24  23
ATOM      1  C   UNL     1      42.619  18.194  22.347  0.00  0.00    +0.094 C 
ATOM      2  C   UNL     1      43.958  17.647  21.919  0.00  0.00    -0.026 A 
ATOM      3  C   UNL     1      44.983  18.507  21.664  0.00  0.00    -0.021 A 
ATOM      4  C   UNL     1      46.232  18.010  21.264  0.00  0.00    +0.026 A 
ATOM      5  C   UNL     1      47.312  18.887  20.994  0.00  0.00    -0.036 A 
ATOM     22  C   UNL     1      48.532  18.371  20.603  0.00  0.00    +0.055 A 
ATOM     23  C   UNL     1      48.713  16.988  20.471  0.00  0.00    -0.095 A 
ATOM     57  C   UNL     1      47.668  16.111  20.732  0.00  0.00    +0.181 A 
ATOM     60  C   UNL     1      46.416  16.613  21.132  0.00  0.00    -0.101 A 
ATOM     61  C   UNL     1      45.339  15.745  21.403  0.00  0.00    +0.158 A 
ATOM     64  C   UNL     1      44.128  16.271  21.797  0.00  0.00    -0.093 A 
BRANCH   5   6
ATOM      6  C   UNL     1      47.132  20.351  21.129  0.00  0.00    -0.086 A 
ATOM      7  C   UNL     1      48.039  21.094  21.889  0.00  0.00    +0.135 A 
ATOM     10  C   UNL     1      47.866  22.462  22.012  0.00  0.00    -0.039 A 
ATOM     11  C   UNL     1      46.797  23.080  21.384  0.00  0.00    +0.131 A 
ATOM     14  C   UNL     1      45.890  22.340  20.625  0.00  0.00    -0.101 A 
ATOM     15  C   UNL     1      44.750  23.083  19.979  0.00  0.00    +0.036 C 
ATOM     16  C   UNL     1      43.685  23.388  21.033  0.00  0.00    +0.035 C 
ATOM     17  C   UNL     1      44.140  22.250  18.848  0.00  0.00    +0.024 C 
ATOM     18  C   UNL     1      43.817  20.859  19.404  0.00  0.00    -0.017 C 
ATOM     19  C   UNL     1      42.986  20.075  18.385  0.00  0.00    +0.021 C 
ATOM     20  C   UNL     1      45.132  20.128  19.665  0.00  0.00    +0.082 C 
ATOM     21  C   UNL     1      46.059  20.983  20.488  0.00  0.00    -0.023 A 
BRANCH   7   8
ATOM      8  O   UNL     1      49.081  20.479  22.505  0.00  0.00    -0.486 OA
ATOM      9  H   UNL     1      48.827  19.711  23.036  0.00  0.00    +0.385 HD
ENDBRANCH   7   8
BRANCH  11  12
ATOM     12  O   UNL     1      46.630  24.422  21.508  0.00  0.00    -0.491 OA
ATOM     13  H   UNL     1      45.743  24.731  21.279  0.00  0.00    +0.392 HD
ENDBRANCH  11  12
ENDBRANCH   5   6
BRANCH  57  58
ATOM     58  O   UNL     1      47.855  14.772  20.600  0.00  0.00    -0.463 OA
ATOM     59  H   UNL     1      47.580  14.259  21.372  0.00  0.00    +0.381 HD
ENDBRANCH  57  58
BRANCH  61  62
ATOM     62  O   UNL     1      45.494  14.402  21.281  0.00  0.00    -0.295 OA
ATOM     63  C   UNL     1      45.140  13.602  22.411  0.00  0.00    +0.240 C 
ENDBRANCH  61  62
ENDBRANCH  24  23
BRANCH  50  51
ATOM     51  O   UNL     1      53.442  16.960  22.462  0.00  0.00    -0.291 OA
ATOM     52  C   UNL     1      53.949  18.294  22.505  0.00  0.00    +0.246 C 
ENDBRANCH  50  51
BRANCH  54  55
ATOM     55  O   UNL     1      51.019  17.308  22.040  0.00  0.00    -0.463 OA
ATOM     56  H   UNL     1      51.714  17.105  22.681  0.00  0.00    +0.393 HD
ENDBRANCH  54  55
TORSDOF 11
ENDMDL
MODEL 5
REMARK VINA RESULT:      -4.8      2.199      9.711
REMARK  Name = ZINC95486376
REMARK  19 active torsions:
REMARK  status: ('A' for Active; 'I' for Inactive)
REMARK    1  A    between atoms: C1_1  and  C2_2
REMARK    2  A    between atoms: C5_5  and  C36_45
REMARK    3  A    between atoms: C7_7  and  C13_15
REMARK    4  A    between atoms: C8_8  and  O2_14
REMARK    5  A    between atoms: C10_10  and  O1_12
REMARK    6  A    between atoms: O1_12  and  C12_13
REMARK    7  A    between atoms: C15_17  and  C25_29
REMARK    8  A    between atoms: C18_20  and  C24_28
REMARK    9  A    between atoms: C20_22  and  O4_26
REMARK   10  A    between atoms: C22_24  and  O3_25
REMARK   11  A    between atoms: O4_26  and  C23_27
REMARK   12  A    between atoms: C26_30  and  O6_44
REMARK   13  A    between atoms: C28_32  and  O5_43
REMARK   14  A    between atoms: C32_36  and  C35_42
REMARK   15  A    between atoms: C33_39  and  C34_41
REMARK   16  A    between atoms: C37_46  and  O8_60
REMARK   17  A    between atoms: C39_48  and  O7_59
REMARK   18  A    between atoms: C43_52  and  C47_58
REMARK   19  A    between atoms: C45_55  and  C46_57
REMARK                            x       y       z     vdW  Elec       q    Type
REMARK                         _______ _______ _______ _____ _____    ______ ____
ROOT
ATOM     24  C   UNL     1      49.908  15.992  19.922  0.00  0.00    -0.091 A 
ATOM     25  C   UNL     1      49.421  15.371  18.765  0.00  0.00    +0.075 A 
ATOM     26  C   UNL     1      49.989  14.200  18.303  0.00  0.00    -0.082 A 
ATOM     45  C   UNL     1      51.076  13.620  19.003  0.00  0.00    +0.030 A 
ATOM     46  C   UNL     1      51.673  12.433  18.556  0.00  0.00    -0.046 A 
ATOM     47  C   UNL     1      52.717  11.894  19.245  0.00  0.00    -0.017 A 
ATOM     48  C   UNL     1      53.348  10.616  18.754  0.00  0.00    +0.094 C 
ATOM     49  C   UNL     1      53.208  12.503  20.395  0.00  0.00    -0.099 A 
ATOM     50  C   UNL     1      52.650  13.670  20.866  0.00  0.00    +0.171 A 
ATOM     53  C   UNL     1      51.568  14.250  20.172  0.00  0.00    -0.107 A 
ATOM     54  C   UNL     1      50.976  15.445  20.622  0.00  0.00    +0.200 A 
ENDROOT
BRANCH  26  27
ATOM     27  C   UNL     1      49.465  13.551  17.079  0.00  0.00    -0.054 A 
ATOM     28  C   UNL     1      50.293  13.394  15.963  0.00  0.00    +0.172 A 
ATOM     31  C   UNL     1      49.797  12.787  14.823  0.00  0.00    -0.017 A 
ATOM     32  C   UNL     1      48.486  12.340  14.792  0.00  0.00    +0.160 A 
ATOM     35  C   UNL     1      47.658  12.496  15.903  0.00  0.00    -0.166 A 
ATOM     36  C   UNL     1      46.239  11.996  15.816  0.00  0.00    +0.242 C 
ATOM     37  C   UNL     1      46.223  10.648  15.092  0.00  0.00    +0.094 C 
ATOM     38  N   UNL     1      45.673  11.817  17.160  0.00  0.00    -0.505 N 
ATOM     39  H   UNL     1      44.696  11.578  17.083  0.00  0.00    +0.431 HD
ATOM     40  H   UNL     1      46.165  11.083  17.645  0.00  0.00    +0.427 HD
ATOM     41  C   UNL     1      45.815  13.079  17.902  0.00  0.00    +0.172 C 
ATOM     42  C   UNL     1      44.969  13.029  19.177  0.00  0.00    +0.096 C 
ATOM     43  C   UNL     1      47.288  13.265  18.269  0.00  0.00    +0.135 C 
ATOM     44  C   UNL     1      48.146  13.091  17.043  0.00  0.00    -0.041 A 
BRANCH  28  29
ATOM     29  O   UNL     1      51.578  13.836  15.997  0.00  0.00    -0.480 OA
ATOM     30  H   UNL     1      51.710  14.692  15.569  0.00  0.00    +0.402 HD
ENDBRANCH  28  29
BRANCH  32  33
ATOM     33  O   UNL     1      48.002  11.746  13.671  0.00  0.00    -0.490 OA
ATOM     34  H   UNL     1      48.676  11.297  13.142  0.00  0.00    +0.402 HD
ENDBRANCH  32  33
ENDBRANCH  26  27
BRANCH  24  23
ATOM      1  C   UNL     1      47.633  23.161  22.502  0.00  0.00    +0.094 C 
ATOM      2  C   UNL     1      48.276  21.887  22.016  0.00  0.00    -0.026 A 
ATOM      3  C   UNL     1      47.497  20.799  21.754  0.00  0.00    -0.021 A 
ATOM      4  C   UNL     1      48.083  19.609  21.303  0.00  0.00    +0.026 A 
ATOM      5  C   UNL     1      47.292  18.467  21.024  0.00  0.00    -0.036 A 
ATOM     22  C   UNL     1      47.894  17.307  20.579  0.00  0.00    +0.055 A 
ATOM     23  C   UNL     1      49.283  17.248  20.399  0.00  0.00    -0.095 A 
ATOM     57  C   UNL     1      50.078  18.356  20.665  0.00  0.00    +0.181 A 
ATOM     60  C   UNL     1      49.486  19.549  21.119  0.00  0.00    -0.101 A 
ATOM     61  C   UNL     1      50.268  20.688  21.396  0.00  0.00    +0.158 A 
ATOM     64  C   UNL     1      49.655  21.841  21.835  0.00  0.00    -0.093 A 
BRANCH   5   6
ATOM      6  C   UNL     1      45.823  18.517  21.212  0.00  0.00    -0.086 A 
ATOM      7  C   UNL     1      45.185  17.522  21.955  0.00  0.00    +0.135 A 
ATOM     10  C   UNL     1      43.812  17.573  22.127  0.00  0.00    -0.039 A 
ATOM     11  C   UNL     1      43.085  18.606  21.560  0.00  0.00    +0.131 A 
ATOM     14  C   UNL     1      43.721  19.601  20.816  0.00  0.00    -0.101 A 
ATOM     15  C   UNL     1      42.861  20.688  20.223  0.00  0.00    +0.036 C 
ATOM     16  C   UNL     1      42.153  20.149  18.979  0.00  0.00    +0.035 C 
ATOM     17  C   UNL     1      43.714  21.904  19.852  0.00  0.00    +0.024 C 
ATOM     18  C   UNL     1      44.885  21.417  18.990  0.00  0.00    -0.017 C 
ATOM     19  C   UNL     1      45.622  22.618  18.394  0.00  0.00    +0.021 C 
ATOM     20  C   UNL     1      45.836  20.618  19.878  0.00  0.00    +0.082 C 
ATOM     21  C   UNL     1      45.084  19.565  20.648  0.00  0.00    -0.023 A 
BRANCH   7   8
ATOM      8  O   UNL     1      45.904  16.509  22.505  0.00  0.00    -0.486 OA
ATOM      9  H   UNL     1      45.871  16.483  23.471  0.00  0.00    +0.385 HD
ENDBRANCH   7   8
BRANCH  11  12
ATOM     12  O   UNL     1      41.739  18.652  21.729  0.00  0.00    -0.491 OA
ATOM     13  H   UNL     1      41.445  19.313  22.371  0.00  0.00    +0.392 HD
ENDBRANCH  11  12
ENDBRANCH   5   6
BRANCH  57  58
ATOM     58  O   UNL     1      51.423  18.287  20.488  0.00  0.00    -0.463 OA
ATOM     59  H   UNL     1      51.789  17.400  20.606  0.00  0.00    +0.381 HD
ENDBRANCH  57  58
BRANCH  61  62
ATOM     62  O   UNL     1      51.615  20.650  21.228  0.00  0.00    -0.295 OA
ATOM     63  C   UNL     1      52.180  21.579  20.299  0.00  0.00    +0.240 C 
ENDBRANCH  61  62
ENDBRANCH  24  23
BRANCH  50  51
ATOM     51  O   UNL     1      53.137  14.258  21.990  0.00  0.00    -0.291 OA
ATOM     52  C   UNL     1      54.535  14.111  22.244  0.00  0.00    +0.246 C 
ENDBRANCH  50  51
BRANCH  54  55
ATOM     55  O   UNL     1      51.445  16.059  21.738  0.00  0.00    -0.463 OA
ATOM     56  H   UNL     1      51.224  16.999  21.792  0.00  0.00    +0.393 HD
ENDBRANCH  54  55
TORSDOF 11
ENDMDL
MODEL 6
REMARK VINA RESULT:      -4.4      1.681      4.454
REMARK  Name = ZINC95486376
REMARK  19 active torsions:
REMARK  status: ('A' for Active; 'I' for Inactive)
REMARK    1  A    between atoms: C1_1  and  C2_2
REMARK    2  A    between atoms: C5_5  and  C36_45
REMARK    3  A    between atoms: C7_7  and  C13_15
REMARK    4  A    between atoms: C8_8  and  O2_14
REMARK    5  A    between atoms: C10_10  and  O1_12
REMARK    6  A    between atoms: O1_12  and  C12_13
REMARK    7  A    between atoms: C15_17  and  C25_29
REMARK    8  A    between atoms: C18_20  and  C24_28
REMARK    9  A    between atoms: C20_22  and  O4_26
REMARK   10  A    between atoms: C22_24  and  O3_25
REMARK   11  A    between atoms: O4_26  and  C23_27
REMARK   12  A    between atoms: C26_30  and  O6_44
REMARK   13  A    between atoms: C28_32  and  O5_43
REMARK   14  A    between atoms: C32_36  and  C35_42
REMARK   15  A    between atoms: C33_39  and  C34_41
REMARK   16  A    between atoms: C37_46  and  O8_60
REMARK   17  A    between atoms: C39_48  and  O7_59
REMARK   18  A    between atoms: C43_52  and  C47_58
REMARK   19  A    between atoms: C45_55  and  C46_57
REMARK                            x       y       z     vdW  Elec       q    Type
REMARK                         _______ _______ _______ _____ _____    ______ ____
ROOT
ATOM     24  C   UNL     1      49.489  16.711  20.307  0.00  0.00    -0.091 A 
ATOM     25  C   UNL     1      48.123  16.576  20.588  0.00  0.00    +0.075 A 
ATOM     26  C   UNL     1      47.389  17.654  21.043  0.00  0.00    -0.082 A 
ATOM     45  C   UNL     1      48.021  18.908  21.231  0.00  0.00    +0.030 A 
ATOM     46  C   UNL     1      47.300  20.018  21.693  0.00  0.00    -0.046 A 
ATOM     47  C   UNL     1      47.928  21.214  21.867  0.00  0.00    -0.017 A 
ATOM     48  C   UNL     1      47.142  22.400  22.363  0.00  0.00    +0.094 C 
ATOM     49  C   UNL     1      49.285  21.359  21.591  0.00  0.00    -0.099 A 
ATOM     50  C   UNL     1      50.027  20.292  21.135  0.00  0.00    +0.171 A 
ATOM     53  C   UNL     1      49.402  19.042  20.947  0.00  0.00    -0.107 A 
ATOM     54  C   UNL     1      50.131  17.929  20.488  0.00  0.00    +0.200 A 
ENDROOT
BRANCH  26  27
ATOM     27  C   UNL     1      45.945  17.500  21.336  0.00  0.00    -0.054 A 
ATOM     28  C   UNL     1      45.495  16.394  22.065  0.00  0.00    +0.172 A 
ATOM     31  C   UNL     1      44.145  16.257  22.335  0.00  0.00    -0.017 A 
ATOM     32  C   UNL     1      43.248  17.211  21.882  0.00  0.00    +0.160 A 
ATOM     35  C   UNL     1      43.694  18.314  21.155  0.00  0.00    -0.166 A 
ATOM     36  C   UNL     1      42.677  19.320  20.683  0.00  0.00    +0.242 C 
ATOM     37  C   UNL     1      41.651  19.559  21.792  0.00  0.00    +0.094 C 
ATOM     38  N   UNL     1      43.329  20.596  20.358  0.00  0.00    -0.505 N 
ATOM     39  H   UNL     1      42.652  21.225  19.952  0.00  0.00    +0.431 HD
ATOM     40  H   UNL     1      43.715  21.007  21.194  0.00  0.00    +0.427 HD
ATOM     41  C   UNL     1      44.407  20.341  19.391  0.00  0.00    +0.172 C 
ATOM     42  C   UNL     1      44.897  21.666  18.801  0.00  0.00    +0.096 C 
ATOM     43  C   UNL     1      45.559  19.646  20.119  0.00  0.00    +0.135 C 
ATOM     44  C   UNL     1      45.035  18.462  20.889  0.00  0.00    -0.041 A 
BRANCH  28  29
ATOM     29  O   UNL     1      46.378  15.460  22.505  0.00  0.00    -0.480 OA
ATOM     30  H   UNL     1      46.133  15.053  23.347  0.00  0.00    +0.402 HD
ENDBRANCH  28  29
BRANCH  32  33
ATOM     33  O   UNL     1      41.924  17.072  22.148  0.00  0.00    -0.490 OA
ATOM     34  H   UNL     1      41.346  17.349  21.424  0.00  0.00    +0.402 HD
ENDBRANCH  32  33
ENDBRANCH  26  27
BRANCH  24  23
ATOM      1  C   UNL     1      54.438  10.779  18.428  0.00  0.00    +0.094 C 
ATOM      2  C   UNL     1      53.662  11.970  18.929  0.00  0.00    -0.026 A 
ATOM      3  C   UNL     1      52.422  12.224  18.424  0.00  0.00    -0.021 A 
ATOM      4  C   UNL     1      51.691  13.329  18.882  0.00  0.00    +0.026 A 
ATOM      5  C   UNL     1      50.400  13.611  18.372  0.00  0.00    -0.036 A 
ATOM     22  C   UNL     1      49.701  14.706  18.841  0.00  0.00    +0.055 A 
ATOM     23  C   UNL     1      50.256  15.541  19.819  0.00  0.00    -0.095 A 
ATOM     57  C   UNL     1      51.520  15.283  20.334  0.00  0.00    +0.181 A 
ATOM     60  C   UNL     1      52.251  14.173  19.871  0.00  0.00    -0.101 A 
ATOM     61  C   UNL     1      53.536  13.887  20.377  0.00  0.00    +0.158 A 
ATOM     64  C   UNL     1      54.221  12.790  19.905  0.00  0.00    -0.093 A 
BRANCH   5   6
ATOM      6  C   UNL     1      49.803  12.736  17.336  0.00  0.00    -0.086 A 
ATOM      7  C   UNL     1      48.799  11.831  17.688  0.00  0.00    +0.135 A 
ATOM     10  C   UNL     1      48.245  11.015  16.717  0.00  0.00    -0.039 A 
ATOM     11  C   UNL     1      48.691  11.101  15.409  0.00  0.00    +0.131 A 
ATOM     14  C   UNL     1      49.695  12.004  15.055  0.00  0.00    -0.101 A 
ATOM     15  C   UNL     1      50.133  12.033  13.613  0.00  0.00    +0.036 C 
ATOM     16  C   UNL     1      51.050  10.840  13.340  0.00  0.00    +0.035 C 
ATOM     17  C   UNL     1      50.870  13.338  13.303  0.00  0.00    +0.024 C 
ATOM     18  C   UNL     1      51.972  13.522  14.353  0.00  0.00    -0.017 C 
ATOM     19  C   UNL     1      52.888  14.678  13.944  0.00  0.00    +0.021 C 
ATOM     20  C   UNL     1      51.313  13.838  15.694  0.00  0.00    +0.082 C 
ATOM     21  C   UNL     1      50.244  12.825  16.010  0.00  0.00    -0.023 A 
BRANCH   7   8
ATOM      8  O   UNL     1      48.370  11.750  18.974  0.00  0.00    -0.486 OA
ATOM      9  H   UNL     1      48.995  12.109  19.620  0.00  0.00    +0.385 HD
ENDBRANCH   7   8
BRANCH  11  12
ATOM     12  O   UNL     1      48.146  10.298  14.459  0.00  0.00    -0.491 OA
ATOM     13  H   UNL     1      47.529   9.640  14.807  0.00  0.00    +0.392 HD
ENDBRANCH  11  12
ENDBRANCH   5   6
BRANCH  57  58
ATOM     58  O   UNL     1      52.049  16.100  21.282  0.00  0.00    -0.463 OA
ATOM     59  H   UNL     1      52.945  16.403  21.083  0.00  0.00    +0.381 HD
ENDBRANCH  57  58
BRANCH  61  62
ATOM     62  O   UNL     1      54.091  14.685  21.325  0.00  0.00    -0.295 OA
ATOM     63  C   UNL     1      55.374  14.302  21.826  0.00  0.00    +0.240 C 
ENDBRANCH  61  62
ENDBRANCH  24  23
BRANCH  50  51
ATOM     51  O   UNL     1      51.350  20.443  20.869  0.00  0.00    -0.291 OA
ATOM     52  C   UNL     1      52.026  21.514  21.529  0.00  0.00    +0.246 C 
ENDBRANCH  50  51
BRANCH  54  55
ATOM     55  O   UNL     1      51.456  18.047  20.220  0.00  0.00    -0.463 OA
ATOM     56  H   UNL     1      51.949  17.219  20.299  0.00  0.00    +0.393 HD
ENDBRANCH  54  55
TORSDOF 11
ENDMDL
MODEL 7
REMARK VINA RESULT:      -3.7      3.339      5.541
REMARK  Name = ZINC95486376
REMARK  19 active torsions:
REMARK  status: ('A' for Active; 'I' for Inactive)
REMARK    1  A    between atoms: C1_1  and  C2_2
REMARK    2  A    between atoms: C5_5  and  C36_45
REMARK    3  A    between atoms: C7_7  and  C13_15
REMARK    4  A    between atoms: C8_8  and  O2_14
REMARK    5  A    between atoms: C10_10  and  O1_12
REMARK    6  A    between atoms: O1_12  and  C12_13
REMARK    7  A    between atoms: C15_17  and  C25_29
REMARK    8  A    between atoms: C18_20  and  C24_28
REMARK    9  A    between atoms: C20_22  and  O4_26
REMARK   10  A    between atoms: C22_24  and  O3_25
REMARK   11  A    between atoms: O4_26  and  C23_27
REMARK   12  A    between atoms: C26_30  and  O6_44
REMARK   13  A    between atoms: C28_32  and  O5_43
REMARK   14  A    between atoms: C32_36  and  C35_42
REMARK   15  A    between atoms: C33_39  and  C34_41
REMARK   16  A    between atoms: C37_46  and  O8_60
REMARK   17  A    between atoms: C39_48  and  O7_59
REMARK   18  A    between atoms: C43_52  and  C47_58
REMARK   19  A    between atoms: C45_55  and  C46_57
REMARK                            x       y       z     vdW  Elec       q    Type
REMARK                         _______ _______ _______ _____ _____    ______ ____
ROOT
ATOM     24  C   UNL     1      48.203  18.049  20.348  0.00  0.00    -0.091 A 
ATOM     25  C   UNL     1      46.956  18.569  19.977  0.00  0.00    +0.075 A 
ATOM     26  C   UNL     1      46.607  19.864  20.309  0.00  0.00    -0.082 A 
ATOM     45  C   UNL     1      47.516  20.675  21.031  0.00  0.00    +0.030 A 
ATOM     46  C   UNL     1      47.188  21.992  21.382  0.00  0.00    -0.046 A 
ATOM     47  C   UNL     1      48.077  22.754  22.078  0.00  0.00    -0.017 A 
ATOM     48  C   UNL     1      47.712  24.169  22.447  0.00  0.00    +0.094 C 
ATOM     49  C   UNL     1      49.318  22.248  22.450  0.00  0.00    -0.099 A 
ATOM     50  C   UNL     1      49.678  20.959  22.125  0.00  0.00    +0.171 A 
ATOM     53  C   UNL     1      48.776  20.148  21.406  0.00  0.00    -0.107 A 
ATOM     54  C   UNL     1      49.108  18.824  21.062  0.00  0.00    +0.200 A 
ENDROOT
BRANCH  26  27
ATOM     27  C   UNL     1      45.286  20.403  19.911  0.00  0.00    -0.054 A 
ATOM     28  C   UNL     1      45.212  21.551  19.115  0.00  0.00    +0.172 A 
ATOM     31  C   UNL     1      43.975  22.049  18.746  0.00  0.00    -0.017 A 
ATOM     32  C   UNL     1      42.820  21.411  19.167  0.00  0.00    +0.160 A 
ATOM     35  C   UNL     1      42.890  20.267  19.960  0.00  0.00    -0.166 A 
ATOM     36  C   UNL     1      41.603  19.614  20.393  0.00  0.00    +0.242 C 
ATOM     37  C   UNL     1      40.618  19.616  19.223  0.00  0.00    +0.094 C 
ATOM     38  N   UNL     1      41.845  18.224  20.805  0.00  0.00    -0.505 N 
ATOM     39  H   UNL     1      40.995  17.834  21.184  0.00  0.00    +0.431 HD
ATOM     40  H   UNL     1      42.146  17.678  20.012  0.00  0.00    +0.427 HD
ATOM     41  C   UNL     1      42.894  18.215  21.836  0.00  0.00    +0.172 C 
ATOM     42  C   UNL     1      42.951  16.838  22.504  0.00  0.00    +0.096 C 
ATOM     43  C   UNL     1      44.236  18.518  21.169  0.00  0.00    +0.135 C 
ATOM     44  C   UNL     1      44.116  19.761  20.325  0.00  0.00    -0.041 A 
BRANCH  28  29
ATOM     29  O   UNL     1      46.349  22.175  18.707  0.00  0.00    -0.480 OA
ATOM     30  H   UNL     1      46.194  22.950  18.151  0.00  0.00    +0.402 HD
ENDBRANCH  28  29
BRANCH  32  33
ATOM     33  O   UNL     1      41.607  21.904  18.804  0.00  0.00    -0.490 OA
ATOM     34  H   UNL     1      41.647  22.572  18.106  0.00  0.00    +0.402 HD
ENDBRANCH  32  33
ENDBRANCH  26  27
BRANCH  24  23
ATOM      1  C   UNL     1      49.572  10.278  19.375  0.00  0.00    +0.094 C 
ATOM      2  C   UNL     1      49.209  11.691  19.753  0.00  0.00    -0.026 A 
ATOM      3  C   UNL     1      49.565  12.718  18.932  0.00  0.00    -0.021 A 
ATOM      4  C   UNL     1      49.234  14.037  19.273  0.00  0.00    +0.026 A 
ATOM      5  C   UNL     1      49.594  15.120  18.433  0.00  0.00    -0.036 A 
ATOM     22  C   UNL     1      49.254  16.409  18.793  0.00  0.00    +0.055 A 
ATOM     23  C   UNL     1      48.556  16.658  19.982  0.00  0.00    -0.095 A 
ATOM     57  C   UNL     1      48.192  15.611  20.820  0.00  0.00    +0.181 A 
ATOM     60  C   UNL     1      48.527  14.289  20.474  0.00  0.00    -0.101 A 
ATOM     61  C   UNL     1      48.170  13.208  21.305  0.00  0.00    +0.158 A 
ATOM     64  C   UNL     1      48.510  11.926  20.933  0.00  0.00    -0.093 A 
BRANCH   5   6
ATOM      6  C   UNL     1      50.334  14.869  17.174  0.00  0.00    -0.086 A 
ATOM      7  C   UNL     1      51.502  15.585  16.902  0.00  0.00    +0.135 A 
ATOM     10  C   UNL     1      52.189  15.348  15.724  0.00  0.00    -0.039 A 
ATOM     11  C   UNL     1      51.712  14.407  14.827  0.00  0.00    +0.131 A 
ATOM     14  C   UNL     1      50.545  13.692  15.096  0.00  0.00    -0.101 A 
ATOM     15  C   UNL     1      50.086  12.691  14.067  0.00  0.00    +0.036 C 
ATOM     16  C   UNL     1      49.417  13.431  12.907  0.00  0.00    +0.035 C 
ATOM     17  C   UNL     1      49.101  11.697  14.687  0.00  0.00    +0.024 C 
ATOM     18  C   UNL     1      48.002  12.498  15.396  0.00  0.00    -0.017 C 
ATOM     19  C   UNL     1      46.870  11.559  15.819  0.00  0.00    +0.021 C 
ATOM     20  C   UNL     1      48.609  13.160  16.631  0.00  0.00    +0.082 C 
ATOM     21  C   UNL     1      49.861  13.912  16.267  0.00  0.00    -0.023 A 
BRANCH   7   8
ATOM      8  O   UNL     1      51.960  16.509  17.786  0.00  0.00    -0.486 OA
ATOM      9  H   UNL     1      51.815  16.272  18.713  0.00  0.00    +0.385 HD
ENDBRANCH   7   8
BRANCH  11  12
ATOM     12  O   UNL     1      52.388  14.179  13.671  0.00  0.00    -0.491 OA
ATOM     13  H   UNL     1      53.291  14.527  13.668  0.00  0.00    +0.392 HD
ENDBRANCH  11  12
ENDBRANCH   5   6
BRANCH  57  58
ATOM     58  O   UNL     1      47.516  15.864  21.970  0.00  0.00    -0.463 OA
ATOM     59  H   UNL     1      46.717  16.394  21.848  0.00  0.00    +0.381 HD
ENDBRANCH  57  58
BRANCH  61  62
ATOM     62  O   UNL     1      47.493  13.429  22.461  0.00  0.00    -0.295 OA
ATOM     63  C   UNL     1      46.128  13.006  22.505  0.00  0.00    +0.240 C 
ENDBRANCH  61  62
ENDBRANCH  24  23
BRANCH  50  51
ATOM     51  O   UNL     1      50.892  20.473  22.494  0.00  0.00    -0.291 OA
ATOM     52  C   UNL     1      52.040  21.081  21.902  0.00  0.00    +0.246 C 
ENDBRANCH  50  51
BRANCH  54  55
ATOM     55  O   UNL     1      50.311  18.309  21.422  0.00  0.00    -0.463 OA
ATOM     56  H   UNL     1      50.260  17.644  22.122  0.00  0.00    +0.393 HD
ENDBRANCH  54  55
TORSDOF 11
ENDMDL
MODEL 8
REMARK VINA RESULT:      -2.8      2.381      9.567
REMARK  Name = ZINC95486376
REMARK  19 active torsions:
REMARK  status: ('A' for Active; 'I' for Inactive)
REMARK    1  A    between atoms: C1_1  and  C2_2
REMARK    2  A    between atoms: C5_5  and  C36_45
REMARK    3  A    between atoms: C7_7  and  C13_15
REMARK    4  A    between atoms: C8_8  and  O2_14
REMARK    5  A    between atoms: C10_10  and  O1_12
REMARK    6  A    between atoms: O1_12  and  C12_13
REMARK    7  A    between atoms: C15_17  and  C25_29
REMARK    8  A    between atoms: C18_20  and  C24_28
REMARK    9  A    between atoms: C20_22  and  O4_26
REMARK   10  A    between atoms: C22_24  and  O3_25
REMARK   11  A    between atoms: O4_26  and  C23_27
REMARK   12  A    between atoms: C26_30  and  O6_44
REMARK   13  A    between atoms: C28_32  and  O5_43
REMARK   14  A    between atoms: C32_36  and  C35_42
REMARK   15  A    between atoms: C33_39  and  C34_41
REMARK   16  A    between atoms: C37_46  and  O8_60
REMARK   17  A    between atoms: C39_48  and  O7_59
REMARK   18  A    between atoms: C43_52  and  C47_58
REMARK   19  A    between atoms: C45_55  and  C46_57
REMARK                            x       y       z     vdW  Elec       q    Type
REMARK                         _______ _______ _______ _____ _____    ______ ____
ROOT
ATOM     24  C   UNL     1      50.699  16.400  19.501  0.00  0.00    -0.091 A 
ATOM     25  C   UNL     1      50.149  15.768  18.378  0.00  0.00    +0.075 A 
ATOM     26  C   UNL     1      50.699  14.598  17.890  0.00  0.00    -0.082 A 
ATOM     45  C   UNL     1      51.829  14.031  18.529  0.00  0.00    +0.030 A 
ATOM     46  C   UNL     1      52.407  12.845  18.054  0.00  0.00    -0.046 A 
ATOM     47  C   UNL     1      53.494  12.317  18.683  0.00  0.00    -0.017 A 
ATOM     48  C   UNL     1      54.105  11.041  18.163  0.00  0.00    +0.094 C 
ATOM     49  C   UNL     1      54.047  12.937  19.799  0.00  0.00    -0.099 A 
ATOM     50  C   UNL     1      53.508  14.103  20.296  0.00  0.00    +0.171 A 
ATOM     53  C   UNL     1      52.384  14.671  19.664  0.00  0.00    -0.107 A 
ATOM     54  C   UNL     1      51.810  15.865  20.140  0.00  0.00    +0.200 A 
ENDROOT
BRANCH  26  27
ATOM     27  C   UNL     1      50.108  13.939  16.702  0.00  0.00    -0.054 A 
ATOM     28  C   UNL     1      50.885  13.741  15.556  0.00  0.00    +0.172 A 
ATOM     31  C   UNL     1      50.327  13.123  14.451  0.00  0.00    -0.017 A 
ATOM     32  C   UNL     1      49.005  12.708  14.484  0.00  0.00    +0.160 A 
ATOM     35  C   UNL     1      48.229  12.904  15.625  0.00  0.00    -0.166 A 
ATOM     36  C   UNL     1      46.797  12.437  15.607  0.00  0.00    +0.242 C 
ATOM     37  C   UNL     1      46.719  11.077  14.912  0.00  0.00    +0.094 C 
ATOM     38  N   UNL     1      46.284  12.299  16.977  0.00  0.00    -0.505 N 
ATOM     39  H   UNL     1      45.299  12.081  16.946  0.00  0.00    +0.431 HD
ATOM     40  H   UNL     1      46.779  11.562  17.456  0.00  0.00    +0.427 HD
ATOM     41  C   UNL     1      46.486  13.571  17.686  0.00  0.00    +0.172 C 
ATOM     42  C   UNL     1      45.694  13.565  18.996  0.00  0.00    +0.096 C 
ATOM     43  C   UNL     1      47.977  13.729  17.988  0.00  0.00    +0.135 C 
ATOM     44  C   UNL     1      48.778  13.510  16.731  0.00  0.00    -0.041 A 
BRANCH  28  29
ATOM     29  O   UNL     1      52.180  14.152  15.528  0.00  0.00    -0.480 OA
ATOM     30  H   UNL     1      52.351  14.944  16.055  0.00  0.00    +0.402 HD
ENDBRANCH  28  29
BRANCH  32  33
ATOM     33  O   UNL     1      48.462  12.104  13.396  0.00  0.00    -0.490 OA
ATOM     34  H   UNL     1      48.020  12.712  12.787  0.00  0.00    +0.402 HD
ENDBRANCH  32  33
ENDBRANCH  26  27
BRANCH  24  23
ATOM      1  C   UNL     1      48.536  23.437  22.504  0.00  0.00    +0.094 C 
ATOM      2  C   UNL     1      49.158  22.164  21.990  0.00  0.00    -0.026 A 
ATOM      3  C   UNL     1      48.364  21.202  21.442  0.00  0.00    -0.021 A 
ATOM      4  C   UNL     1      48.931  20.014  20.961  0.00  0.00    +0.026 A 
ATOM      5  C   UNL     1      48.123  19.001  20.386  0.00  0.00    -0.036 A 
ATOM     22  C   UNL     1      48.708  17.841  19.919  0.00  0.00    +0.055 A 
ATOM     23  C   UNL     1      50.094  17.654  20.008  0.00  0.00    -0.095 A 
ATOM     57  C   UNL     1      50.904  18.633  20.567  0.00  0.00    +0.181 A 
ATOM     60  C   UNL     1      50.331  19.825  21.049  0.00  0.00    -0.101 A 
ATOM     61  C   UNL     1      51.130  20.836  21.620  0.00  0.00    +0.158 A 
ATOM     64  C   UNL     1      50.537  21.991  22.078  0.00  0.00    -0.093 A 
BRANCH   5   6
ATOM      6  C   UNL     1      46.657  19.187  20.288  0.00  0.00    -0.086 A 
ATOM      7  C   UNL     1      46.142  20.362  19.735  0.00  0.00    +0.135 A 
ATOM     10  C   UNL     1      44.770  20.530  19.647  0.00  0.00    -0.039 A 
ATOM     11  C   UNL     1      43.924  19.536  20.108  0.00  0.00    +0.131 A 
ATOM     14  C   UNL     1      44.436  18.362  20.661  0.00  0.00    -0.101 A 
ATOM     15  C   UNL     1      43.451  17.330  21.148  0.00  0.00    +0.036 C 
ATOM     16  C   UNL     1      42.885  17.771  22.499  0.00  0.00    +0.035 C 
ATOM     17  C   UNL     1      44.130  15.965  21.288  0.00  0.00    +0.024 C 
ATOM     18  C   UNL     1      45.396  16.149  22.133  0.00  0.00    -0.017 C 
ATOM     19  C   UNL     1      45.972  14.781  22.505  0.00  0.00    +0.021 C 
ATOM     20  C   UNL     1      46.416  16.930  21.308  0.00  0.00    +0.082 C 
ATOM     21  C   UNL     1      45.796  18.181  20.744  0.00  0.00    -0.023 A 
BRANCH   7   8
ATOM      8  O   UNL     1      46.979  21.333  19.289  0.00  0.00    -0.486 OA
ATOM      9  H   UNL     1      46.719  22.227  19.552  0.00  0.00    +0.385 HD
ENDBRANCH   7   8
BRANCH  11  12
ATOM     12  O   UNL     1      42.579  19.705  20.020  0.00  0.00    -0.491 OA
ATOM     13  H   UNL     1      42.288  20.124  19.198  0.00  0.00    +0.392 HD
ENDBRANCH  11  12
ENDBRANCH   5   6
BRANCH  57  58
ATOM     58  O   UNL     1      52.247  18.442  20.648  0.00  0.00    -0.463 OA
ATOM     59  H   UNL     1      52.769  19.232  20.456  0.00  0.00    +0.381 HD
ENDBRANCH  57  58
BRANCH  61  62
ATOM     62  O   UNL     1      52.475  20.673  21.715  0.00  0.00    -0.295 OA
ATOM     63  C   UNL     1      53.293  21.760  21.274  0.00  0.00    +0.240 C 
ENDBRANCH  61  62
ENDBRANCH  24  23
BRANCH  50  51
ATOM     51  O   UNL     1      54.056  14.700  21.386  0.00  0.00    -0.291 OA
ATOM     52  C   UNL     1      55.449  14.479  21.614  0.00  0.00    +0.246 C 
ENDBRANCH  50  51
BRANCH  54  55
ATOM     55  O   UNL     1      52.339  16.488  21.224  0.00  0.00    -0.463 OA
ATOM     56  H   UNL     1      51.763  16.483  22.001  0.00  0.00    +0.393 HD
ENDBRANCH  54  55
TORSDOF 11
ENDMDL
MODEL 9
REMARK VINA RESULT:      -2.7      2.710      6.692
REMARK  Name = ZINC95486376
REMARK  19 active torsions:
REMARK  status: ('A' for Active; 'I' for Inactive)
REMARK    1  A    between atoms: C1_1  and  C2_2
REMARK    2  A    between atoms: C5_5  and  C36_45
REMARK    3  A    between atoms: C7_7  and  C13_15
REMARK    4  A    between atoms: C8_8  and  O2_14
REMARK    5  A    between atoms: C10_10  and  O1_12
REMARK    6  A    between atoms: O1_12  and  C12_13
REMARK    7  A    between atoms: C15_17  and  C25_29
REMARK    8  A    between atoms: C18_20  and  C24_28
REMARK    9  A    between atoms: C20_22  and  O4_26
REMARK   10  A    between atoms: C22_24  and  O3_25
REMARK   11  A    between atoms: O4_26  and  C23_27
REMARK   12  A    between atoms: C26_30  and  O6_44
REMARK   13  A    between atoms: C28_32  and  O5_43
REMARK   14  A    between atoms: C32_36  and  C35_42
REMARK   15  A    between atoms: C33_39  and  C34_41
REMARK   16  A    between atoms: C37_46  and  O8_60
REMARK   17  A    between atoms: C39_48  and  O7_59
REMARK   18  A    between atoms: C43_52  and  C47_58
REMARK   19  A    between atoms: C45_55  and  C46_57
REMARK                            x       y       z     vdW  Elec       q    Type
REMARK                         _______ _______ _______ _____ _____    ______ ____
ROOT
ATOM     24  C   UNL     1      48.531  14.500  18.579  0.00  0.00    -0.091 A 
ATOM     25  C   UNL     1      47.549  15.103  19.375  0.00  0.00    +0.075 A 
ATOM     26  C   UNL     1      46.233  14.687  19.304  0.00  0.00    -0.082 A 
ATOM     45  C   UNL     1      45.872  13.641  18.419  0.00  0.00    +0.030 A 
ATOM     46  C   UNL     1      44.545  13.200  18.326  0.00  0.00    -0.046 A 
ATOM     47  C   UNL     1      44.219  12.193  17.468  0.00  0.00    -0.017 A 
ATOM     48  C   UNL     1      42.789  11.728  17.379  0.00  0.00    +0.094 C 
ATOM     49  C   UNL     1      45.188  11.587  16.674  0.00  0.00    -0.099 A 
ATOM     50  C   UNL     1      46.503  11.992  16.736  0.00  0.00    +0.171 A 
ATOM     53  C   UNL     1      46.867  13.032  17.615  0.00  0.00    -0.107 A 
ATOM     54  C   UNL     1      48.200  13.476  17.701  0.00  0.00    +0.200 A 
ENDROOT
BRANCH  26  27
ATOM     27  C   UNL     1      45.203  15.332  20.151  0.00  0.00    -0.054 A 
ATOM     28  C   UNL     1      44.549  14.591  21.140  0.00  0.00    +0.172 A 
ATOM     31  C   UNL     1      43.588  15.200  21.927  0.00  0.00    -0.017 A 
ATOM     32  C   UNL     1      43.279  16.536  21.731  0.00  0.00    +0.160 A 
ATOM     35  C   UNL     1      43.929  17.277  20.746  0.00  0.00    -0.166 A 
ATOM     36  C   UNL     1      43.552  18.725  20.572  0.00  0.00    +0.242 C 
ATOM     37  C   UNL     1      43.368  19.367  21.948  0.00  0.00    +0.094 C 
ATOM     38  N   UNL     1      44.608  19.448  19.850  0.00  0.00    -0.505 N 
ATOM     39  H   UNL     1      44.298  20.389  19.655  0.00  0.00    +0.431 HD
ATOM     40  H   UNL     1      45.448  19.476  20.407  0.00  0.00    +0.427 HD
ATOM     41  C   UNL     1      44.878  18.747  18.585  0.00  0.00    +0.172 C 
ATOM     42  C   UNL     1      45.737  19.631  17.677  0.00  0.00    +0.096 C 
ATOM     43  C   UNL     1      45.627  17.451  18.897  0.00  0.00    +0.135 C 
ATOM     44  C   UNL     1      44.891  16.681  19.964  0.00  0.00    -0.041 A 
BRANCH  28  29
ATOM     29  O   UNL     1      44.855  13.280  21.326  0.00  0.00    -0.480 OA
ATOM     30  H   UNL     1      44.270  12.825  21.948  0.00  0.00    +0.402 HD
ENDBRANCH  28  29
BRANCH  32  33
ATOM     33  O   UNL     1      42.334  17.130  22.506  0.00  0.00    -0.490 OA
ATOM     34  H   UNL     1      42.294  16.788  23.410  0.00  0.00    +0.402 HD
ENDBRANCH  32  33
ENDBRANCH  26  27
BRANCH  24  23
ATOM      1  C   UNL     1      56.288  15.944  19.561  0.00  0.00    +0.094 C 
ATOM      2  C   UNL     1      54.861  15.468  19.469  0.00  0.00    -0.026 A 
ATOM      3  C   UNL     1      53.914  16.285  18.930  0.00  0.00    -0.021 A 
ATOM      4  C   UNL     1      52.583  15.853  18.840  0.00  0.00    +0.026 A 
ATOM      5  C   UNL     1      51.583  16.687  18.281  0.00  0.00    -0.036 A 
ATOM     22  C   UNL     1      50.279  16.237  18.203  0.00  0.00    +0.055 A 
ATOM     23  C   UNL     1      49.936  14.962  18.671  0.00  0.00    -0.095 A 
ATOM     57  C   UNL     1      50.901  14.127  19.222  0.00  0.00    +0.181 A 
ATOM     60  C   UNL     1      52.236  14.565  19.311  0.00  0.00    -0.101 A 
ATOM     61  C   UNL     1      53.235  13.738  19.864  0.00  0.00    +0.158 A 
ATOM     64  C   UNL     1      54.532  14.197  19.932  0.00  0.00    -0.093 A 
BRANCH   5   6
ATOM      6  C   UNL     1      51.933  18.038  17.784  0.00  0.00    -0.086 A 
ATOM      7  C   UNL     1      52.310  18.210  16.450  0.00  0.00    +0.135 A 
ATOM     10  C   UNL     1      52.637  19.475  15.992  0.00  0.00    -0.039 A 
ATOM     11  C   UNL     1      52.591  20.555  16.857  0.00  0.00    +0.131 A 
ATOM     14  C   UNL     1      52.215  20.385  18.191  0.00  0.00    -0.101 A 
ATOM     15  C   UNL     1      52.196  21.607  19.072  0.00  0.00    +0.036 C 
ATOM     16  C   UNL     1      53.629  21.960  19.475  0.00  0.00    +0.035 C 
ATOM     17  C   UNL     1      51.351  21.352  20.323  0.00  0.00    +0.024 C 
ATOM     18  C   UNL     1      51.842  20.052  20.971  0.00  0.00    -0.017 C 
ATOM     19  C   UNL     1      51.197  19.886  22.349  0.00  0.00    +0.021 C 
ATOM     20  C   UNL     1      51.443  18.885  20.072  0.00  0.00    +0.082 C 
ATOM     21  C   UNL     1      51.878  19.136  18.653  0.00  0.00    -0.023 A 
BRANCH   7   8
ATOM      8  O   UNL     1      52.357  17.145  15.609  0.00  0.00    -0.486 OA
ATOM      9  H   UNL     1      51.749  17.209  14.859  0.00  0.00    +0.385 HD
ENDBRANCH   7   8
BRANCH  11  12
ATOM     12  O   UNL     1      52.914  21.793  16.404  0.00  0.00    -0.491 OA
ATOM     13  H   UNL     1      53.788  21.846  15.993  0.00  0.00    +0.392 HD
ENDBRANCH  11  12
ENDBRANCH   5   6
BRANCH  57  58
ATOM     58  O   UNL     1      50.557  12.893  19.673  0.00  0.00    -0.463 OA
ATOM     59  H   UNL     1      50.947  12.168  19.168  0.00  0.00    +0.381 HD
ENDBRANCH  57  58
BRANCH  61  62
ATOM     62  O   UNL     1      52.922  12.499  20.323  0.00  0.00    -0.295 OA
ATOM     63  C   UNL     1      53.969  11.757  20.953  0.00  0.00    +0.240 C 
ENDBRANCH  61  62
ENDBRANCH  24  23
BRANCH  50  51
ATOM     51  O   UNL     1      47.441  11.394  15.957  0.00  0.00    -0.291 OA
ATOM     52  C   UNL     1      47.270  11.498  14.542  0.00  0.00    +0.246 C 
ENDBRANCH  50  51
BRANCH  54  55
ATOM     55  O   UNL     1      49.158  12.902  16.930  0.00  0.00    -0.463 OA
ATOM     56  H   UNL     1      49.994  12.749  17.391  0.00  0.00    +0.393 HD
ENDBRANCH  54  55
TORSDOF 11
ENDMDL
