MODEL 1
REMARK VINA RESULT:      -7.5      0.000      0.000
REMARK  Name = ZINC95486138
REMARK  9 active torsions:
REMARK  status: ('A' for Active; 'I' for Inactive)
REMARK    1  A    between atoms: C1_1  and  C2_2
REMARK    2  A    between atoms: C2_2  and  C4_4
REMARK    3  A    between atoms: C7_8  and  C30_37
REMARK    4  A    between atoms: C13_17  and  C29_36
REMARK    5  A    between atoms: C16_20  and  O1_35
REMARK    6  A    between atoms: C17_22  and  C27_33
REMARK    7  A    between atoms: C17_22  and  C28_34
REMARK    8  A    between atoms: C21_27  and  C26_32
REMARK    9  A    between atoms: C22_28  and  C25_31
REMARK                            x       y       z     vdW  Elec       q    Type
REMARK                         _______ _______ _______ _____ _____    ______ ____
ROOT
ATOM      3  C   UNL     1      50.521  18.729  17.205  0.00  0.00    +0.019 C 
ATOM      4  C   UNL     1      51.098  17.338  16.874  0.00  0.00    -0.002 C 
ATOM      5  C   UNL     1      51.673  16.818  18.207  0.00  0.00    +0.016 C 
ATOM      6  C   UNL     1      50.707  17.391  19.293  0.00  0.00    -0.105 C 
ATOM     10  C   UNL     1      49.615  16.342  19.467  0.00  0.00    -0.001 C 
ATOM     11  C   UNL     1      48.289  16.903  19.963  0.00  0.00    +0.018 C 
ATOM     12  C   UNL     1      47.806  17.995  19.006  0.00  0.00    -0.027 C 
ATOM     13  C   UNL     1      47.726  17.403  17.594  0.00  0.00    +0.009 C 
ATOM     14  C   UNL     1      46.404  18.491  19.393  0.00  0.00    -0.026 C 
ATOM     15  C   UNL     1      45.481  17.267  19.299  0.00  0.00    +0.011 C 
ATOM     16  C   UNL     1      45.924  19.535  18.380  0.00  0.00    +0.016 C 
ATOM     17  C   UNL     1      44.494  19.947  18.708  0.00  0.00    +0.005 C 
ATOM     18  C   UNL     1      44.333  20.516  20.113  0.00  0.00    -0.002 C 
ATOM     19  C   UNL     1      44.355  22.028  20.097  0.00  0.00    -0.036 C 
ATOM     20  C   UNL     1      45.446  22.597  19.185  0.00  0.00    +0.034 C 
ATOM     21  C   UNL     1      42.997  22.514  19.527  0.00  0.00    +0.013 C 
ATOM     22  C   UNL     1      44.490  22.651  21.484  0.00  0.00    +0.166 C 
ATOM     25  C   UNL     1      45.659  21.996  22.219  0.00  0.00    -0.013 C 
ATOM     26  C   UNL     1      45.298  20.544  22.474  0.00  0.00    +0.014 C 
ATOM     27  C   UNL     1      45.058  19.751  21.181  0.00  0.00    -0.029 C 
ATOM     28  C   UNL     1      44.110  18.607  21.649  0.00  0.00    +0.005 C 
ATOM     29  C   UNL     1      46.391  19.121  20.774  0.00  0.00    +0.015 C 
ATOM     30  C   UNL     1      47.466  20.208  20.876  0.00  0.00    -0.005 C 
ATOM     31  C   UNL     1      48.842  19.680  20.500  0.00  0.00    +0.025 C 
ATOM     32  C   UNL     1      48.819  19.129  19.066  0.00  0.00    +0.004 C 
ATOM     33  C   UNL     1      50.224  18.711  18.703  0.00  0.00    +0.008 C 
ENDROOT
BRANCH   3   2
ATOM      1  C   UNL     1      51.839  20.878  17.899  0.00  0.00    +0.071 C 
ATOM      2  C   UNL     1      51.552  19.790  16.896  0.00  0.00    -0.090 C 
ATOM     34  C   UNL     1      52.197  19.765  15.756  0.00  0.00    -0.045 C 
ENDBRANCH   3   2
BRANCH   6   7
ATOM      7  C   UNL     1      51.466  17.603  20.594  0.00  0.00    +0.509 C 
ATOM      8  O   UNL     1      52.174  18.587  20.732  0.00  0.00    -0.686 OA
ATOM      9  O   UNL     1      51.365  16.792  21.497  0.00  0.00    -0.699 OA
ENDBRANCH   6   7
BRANCH  22  23
ATOM     23  O   UNL     1      44.736  24.054  21.353  0.00  0.00    -0.565 OA
ATOM     24  H   UNL     1      45.673  24.293  21.378  0.00  0.00    +0.372 HD
ENDBRANCH  22  23
TORSDOF 3
ENDMDL
MODEL 2
REMARK VINA RESULT:      -6.7      2.115      3.903
REMARK  Name = ZINC95486138
REMARK  9 active torsions:
REMARK  status: ('A' for Active; 'I' for Inactive)
REMARK    1  A    between atoms: C1_1  and  C2_2
REMARK    2  A    between atoms: C2_2  and  C4_4
REMARK    3  A    between atoms: C7_8  and  C30_37
REMARK    4  A    between atoms: C13_17  and  C29_36
REMARK    5  A    between atoms: C16_20  and  O1_35
REMARK    6  A    between atoms: C17_22  and  C27_33
REMARK    7  A    between atoms: C17_22  and  C28_34
REMARK    8  A    between atoms: C21_27  and  C26_32
REMARK    9  A    between atoms: C22_28  and  C25_31
REMARK                            x       y       z     vdW  Elec       q    Type
REMARK                         _______ _______ _______ _____ _____    ______ ____
ROOT
ATOM      3  C   UNL     1      51.035  16.959  19.316  0.00  0.00    +0.019 C 
ATOM      4  C   UNL     1      52.532  17.296  19.473  0.00  0.00    -0.002 C 
ATOM      5  C   UNL     1      52.825  18.330  18.367  0.00  0.00    +0.016 C 
ATOM      6  C   UNL     1      51.505  19.158  18.254  0.00  0.00    -0.105 C 
ATOM     10  C   UNL     1      51.658  20.313  19.238  0.00  0.00    -0.001 C 
ATOM     11  C   UNL     1      50.337  20.864  19.757  0.00  0.00    +0.018 C 
ATOM     12  C   UNL     1      49.533  19.736  20.408  0.00  0.00    -0.027 C 
ATOM     13  C   UNL     1      50.395  19.091  21.500  0.00  0.00    +0.009 C 
ATOM     14  C   UNL     1      48.255  20.275  21.069  0.00  0.00    -0.026 C 
ATOM     15  C   UNL     1      48.720  21.270  22.142  0.00  0.00    +0.011 C 
ATOM     16  C   UNL     1      47.507  19.133  21.764  0.00  0.00    +0.016 C 
ATOM     17  C   UNL     1      46.298  19.689  22.505  0.00  0.00    +0.005 C 
ATOM     18  C   UNL     1      45.322  20.436  21.602  0.00  0.00    -0.002 C 
ATOM     19  C   UNL     1      44.173  19.546  21.183  0.00  0.00    -0.036 C 
ATOM     20  C   UNL     1      44.625  18.138  20.787  0.00  0.00    +0.034 C 
ATOM     21  C   UNL     1      43.232  19.386  22.406  0.00  0.00    +0.013 C 
ATOM     22  C   UNL     1      43.325  20.133  20.058  0.00  0.00    +0.166 C 
ATOM     25  C   UNL     1      44.240  20.582  18.920  0.00  0.00    -0.013 C 
ATOM     26  C   UNL     1      45.081  21.742  19.425  0.00  0.00    +0.014 C 
ATOM     27  C   UNL     1      45.972  21.361  20.615  0.00  0.00    -0.029 C 
ATOM     28  C   UNL     1      46.183  22.725  21.337  0.00  0.00    +0.005 C 
ATOM     29  C   UNL     1      47.322  20.911  20.055  0.00  0.00    +0.015 C 
ATOM     30  C   UNL     1      47.043  19.941  18.902  0.00  0.00    -0.005 C 
ATOM     31  C   UNL     1      48.328  19.437  18.262  0.00  0.00    +0.025 C 
ATOM     32  C   UNL     1      49.197  18.732  19.314  0.00  0.00    +0.004 C 
ATOM     33  C   UNL     1      50.409  18.163  18.615  0.00  0.00    +0.008 C 
ENDROOT
BRANCH   3   2
ATOM      1  C   UNL     1      49.920  15.728  17.297  0.00  0.00    +0.071 C 
ATOM      2  C   UNL     1      50.883  15.725  18.457  0.00  0.00    -0.090 C 
ATOM     34  C   UNL     1      51.588  14.652  18.720  0.00  0.00    -0.045 C 
ENDBRANCH   3   2
BRANCH   6   7
ATOM      7  C   UNL     1      51.345  19.676  16.833  0.00  0.00    +0.509 C 
ATOM      8  O   UNL     1      51.097  18.900  15.926  0.00  0.00    -0.686 OA
ATOM      9  O   UNL     1      51.463  20.867  16.601  0.00  0.00    -0.699 OA
ENDBRANCH   6   7
BRANCH  22  23
ATOM     23  O   UNL     1      42.420  19.137  19.575  0.00  0.00    -0.565 OA
ATOM     24  H   UNL     1      42.233  19.201  18.629  0.00  0.00    +0.372 HD
ENDBRANCH  22  23
TORSDOF 3
ENDMDL
MODEL 3
REMARK VINA RESULT:      -6.3      3.347      6.960
REMARK  Name = ZINC95486138
REMARK  9 active torsions:
REMARK  status: ('A' for Active; 'I' for Inactive)
REMARK    1  A    between atoms: C1_1  and  C2_2
REMARK    2  A    between atoms: C2_2  and  C4_4
REMARK    3  A    between atoms: C7_8  and  C30_37
REMARK    4  A    between atoms: C13_17  and  C29_36
REMARK    5  A    between atoms: C16_20  and  O1_35
REMARK    6  A    between atoms: C17_22  and  C27_33
REMARK    7  A    between atoms: C17_22  and  C28_34
REMARK    8  A    between atoms: C21_27  and  C26_32
REMARK    9  A    between atoms: C22_28  and  C25_31
REMARK                            x       y       z     vdW  Elec       q    Type
REMARK                         _______ _______ _______ _____ _____    ______ ____
ROOT
ATOM      3  C   UNL     1      45.870  16.253  21.653  0.00  0.00    +0.019 C 
ATOM      4  C   UNL     1      45.559  14.960  22.434  0.00  0.00    -0.002 C 
ATOM      5  C   UNL     1      45.619  13.835  21.381  0.00  0.00    +0.016 C 
ATOM      6  C   UNL     1      46.736  14.294  20.390  0.00  0.00    -0.105 C 
ATOM     10  C   UNL     1      48.036  13.716  20.938  0.00  0.00    -0.001 C 
ATOM     11  C   UNL     1      49.280  14.501  20.544  0.00  0.00    +0.018 C 
ATOM     12  C   UNL     1      49.131  15.955  20.996  0.00  0.00    -0.027 C 
ATOM     13  C   UNL     1      48.856  15.970  22.505  0.00  0.00    +0.009 C 
ATOM     14  C   UNL     1      50.422  16.749  20.742  0.00  0.00    -0.026 C 
ATOM     15  C   UNL     1      51.517  16.055  21.566  0.00  0.00    +0.011 C 
ATOM     16  C   UNL     1      50.263  18.181  21.263  0.00  0.00    +0.016 C 
ATOM     17  C   UNL     1      51.578  18.933  21.104  0.00  0.00    +0.005 C 
ATOM     18  C   UNL     1      52.076  18.988  19.664  0.00  0.00    -0.002 C 
ATOM     19  C   UNL     1      51.694  20.293  19.002  0.00  0.00    -0.036 C 
ATOM     20  C   UNL     1      50.255  20.716  19.307  0.00  0.00    +0.034 C 
ATOM     21  C   UNL     1      52.617  21.401  19.575  0.00  0.00    +0.013 C 
ATOM     22  C   UNL     1      51.903  20.296  17.490  0.00  0.00    +0.166 C 
ATOM     25  C   UNL     1      51.249  19.052  16.889  0.00  0.00    -0.013 C 
ATOM     26  C   UNL     1      52.007  17.835  17.390  0.00  0.00    +0.014 C 
ATOM     27  C   UNL     1      51.965  17.691  18.917  0.00  0.00    -0.029 C 
ATOM     28  C   UNL     1      53.258  16.876  19.222  0.00  0.00    +0.005 C 
ATOM     29  C   UNL     1      50.762  16.813  19.264  0.00  0.00    +0.015 C 
ATOM     30  C   UNL     1      49.565  17.332  18.461  0.00  0.00    -0.005 C 
ATOM     31  C   UNL     1      48.309  16.515  18.726  0.00  0.00    +0.025 C 
ATOM     32  C   UNL     1      47.965  16.553  20.223  0.00  0.00    +0.004 C 
ATOM     33  C   UNL     1      46.661  15.816  20.421  0.00  0.00    +0.008 C 
ENDROOT
BRANCH   3   2
ATOM      1  C   UNL     1      43.395  16.923  22.164  0.00  0.00    +0.071 C 
ATOM      2  C   UNL     1      44.578  16.911  21.229  0.00  0.00    -0.090 C 
ATOM     34  C   UNL     1      44.483  17.472  20.048  0.00  0.00    -0.045 C 
ENDBRANCH   3   2
BRANCH   6   7
ATOM      7  C   UNL     1      46.446  13.748  19.000  0.00  0.00    +0.509 C 
ATOM      8  O   UNL     1      46.948  12.695  18.643  0.00  0.00    -0.686 OA
ATOM      9  O   UNL     1      45.713  14.362  18.245  0.00  0.00    -0.699 OA
ENDBRANCH   6   7
BRANCH  22  23
ATOM     23  O   UNL     1      51.304  21.466  16.928  0.00  0.00    -0.565 OA
ATOM     24  H   UNL     1      51.683  21.733  16.079  0.00  0.00    +0.372 HD
ENDBRANCH  22  23
TORSDOF 3
ENDMDL
MODEL 4
REMARK VINA RESULT:      -5.9      2.989      7.242
REMARK  Name = ZINC95486138
REMARK  9 active torsions:
REMARK  status: ('A' for Active; 'I' for Inactive)
REMARK    1  A    between atoms: C1_1  and  C2_2
REMARK    2  A    between atoms: C2_2  and  C4_4
REMARK    3  A    between atoms: C7_8  and  C30_37
REMARK    4  A    between atoms: C13_17  and  C29_36
REMARK    5  A    between atoms: C16_20  and  O1_35
REMARK    6  A    between atoms: C17_22  and  C27_33
REMARK    7  A    between atoms: C17_22  and  C28_34
REMARK    8  A    between atoms: C21_27  and  C26_32
REMARK    9  A    between atoms: C22_28  and  C25_31
REMARK                            x       y       z     vdW  Elec       q    Type
REMARK                         _______ _______ _______ _____ _____    ______ ____
ROOT
ATOM      3  C   UNL     1      47.581  19.669  21.627  0.00  0.00    +0.019 C 
ATOM      4  C   UNL     1      46.552  20.412  22.504  0.00  0.00    -0.002 C 
ATOM      5  C   UNL     1      45.472  20.903  21.520  0.00  0.00    +0.016 C 
ATOM      6  C   UNL     1      45.403  19.785  20.432  0.00  0.00    -0.105 C 
ATOM     10  C   UNL     1      44.360  18.791  20.928  0.00  0.00    -0.001 C 
ATOM     11  C   UNL     1      44.553  17.374  20.406  0.00  0.00    +0.018 C 
ATOM     12  C   UNL     1      45.953  16.879  20.778  0.00  0.00    -0.027 C 
ATOM     13  C   UNL     1      46.123  16.995  22.297  0.00  0.00    +0.009 C 
ATOM     14  C   UNL     1      46.140  15.404  20.391  0.00  0.00    -0.026 C 
ATOM     15  C   UNL     1      45.082  14.620  21.182  0.00  0.00    +0.011 C 
ATOM     16  C   UNL     1      47.526  14.922  20.833  0.00  0.00    +0.016 C 
ATOM     17  C   UNL     1      47.667  13.433  20.543  0.00  0.00    +0.005 C 
ATOM     18  C   UNL     1      47.472  13.080  19.073  0.00  0.00    -0.002 C 
ATOM     19  C   UNL     1      48.799  12.953  18.359  0.00  0.00    -0.036 C 
ATOM     20  C   UNL     1      49.784  14.065  18.732  0.00  0.00    +0.034 C 
ATOM     21  C   UNL     1      49.446  11.615  18.802  0.00  0.00    +0.013 C 
ATOM     22  C   UNL     1      48.672  12.890  16.839  0.00  0.00    +0.166 C 
ATOM     25  C   UNL     1      47.789  14.042  16.360  0.00  0.00    -0.013 C 
ATOM     26  C   UNL     1      46.383  13.805  16.882  0.00  0.00    +0.014 C 
ATOM     27  C   UNL     1      46.313  13.772  18.416  0.00  0.00    -0.029 C 
ATOM     28  C   UNL     1      45.049  12.901  18.684  0.00  0.00    +0.005 C 
ATOM     29  C   UNL     1      46.016  15.194  18.893  0.00  0.00    +0.015 C 
ATOM     30  C   UNL     1      46.957  16.140  18.140  0.00  0.00    -0.005 C 
ATOM     31  C   UNL     1      46.735  17.592  18.537  0.00  0.00    +0.025 C 
ATOM     32  C   UNL     1      46.954  17.763  20.047  0.00  0.00    +0.004 C 
ATOM     33  C   UNL     1      46.823  19.232  20.375  0.00  0.00    +0.008 C 
ENDROOT
BRANCH   3   2
ATOM      1  C   UNL     1      49.093  20.776  19.804  0.00  0.00    +0.071 C 
ATOM      2  C   UNL     1      48.698  20.614  21.250  0.00  0.00    -0.090 C 
ATOM     34  C   UNL     1      49.325  21.293  22.179  0.00  0.00    -0.045 C 
ENDBRANCH   3   2
BRANCH   6   7
ATOM      7  C   UNL     1      44.985  20.388  19.100  0.00  0.00    +0.509 C 
ATOM      8  O   UNL     1      45.748  21.125  18.499  0.00  0.00    -0.686 OA
ATOM      9  O   UNL     1      43.887  20.135  18.634  0.00  0.00    -0.699 OA
ENDBRANCH   6   7
BRANCH  22  23
ATOM     23  O   UNL     1      49.969  13.006  16.248  0.00  0.00    -0.565 OA
ATOM     24  H   UNL     1      50.696  12.975  16.885  0.00  0.00    +0.372 HD
ENDBRANCH  22  23
TORSDOF 3
ENDMDL
MODEL 5
REMARK VINA RESULT:      -5.9      3.375      6.232
REMARK  Name = ZINC95486138
REMARK  9 active torsions:
REMARK  status: ('A' for Active; 'I' for Inactive)
REMARK    1  A    between atoms: C1_1  and  C2_2
REMARK    2  A    between atoms: C2_2  and  C4_4
REMARK    3  A    between atoms: C7_8  and  C30_37
REMARK    4  A    between atoms: C13_17  and  C29_36
REMARK    5  A    between atoms: C16_20  and  O1_35
REMARK    6  A    between atoms: C17_22  and  C27_33
REMARK    7  A    between atoms: C17_22  and  C28_34
REMARK    8  A    between atoms: C21_27  and  C26_32
REMARK    9  A    between atoms: C22_28  and  C25_31
REMARK                            x       y       z     vdW  Elec       q    Type
REMARK                         _______ _______ _______ _____ _____    ______ ____
ROOT
ATOM      3  C   UNL     1      51.835  19.037  17.826  0.00  0.00    +0.019 C 
ATOM      4  C   UNL     1      52.703  19.924  18.740  0.00  0.00    -0.002 C 
ATOM      5  C   UNL     1      51.698  20.803  19.513  0.00  0.00    +0.016 C 
ATOM      6  C   UNL     1      50.455  19.879  19.715  0.00  0.00    -0.105 C 
ATOM     10  C   UNL     1      50.689  19.156  21.036  0.00  0.00    -0.001 C 
ATOM     11  C   UNL     1      49.984  17.811  21.142  0.00  0.00    +0.018 C 
ATOM     12  C   UNL     1      50.419  16.914  19.981  0.00  0.00    -0.027 C 
ATOM     13  C   UNL     1      51.948  16.802  19.998  0.00  0.00    +0.009 C 
ATOM     14  C   UNL     1      49.839  15.499  20.126  0.00  0.00    -0.026 C 
ATOM     15  C   UNL     1      50.393  14.947  21.447  0.00  0.00    +0.011 C 
ATOM     16  C   UNL     1      50.343  14.610  18.984  0.00  0.00    +0.016 C 
ATOM     17  C   UNL     1      49.850  13.183  19.190  0.00  0.00    +0.005 C 
ATOM     18  C   UNL     1      48.332  13.070  19.265  0.00  0.00    -0.002 C 
ATOM     19  C   UNL     1      47.746  12.670  17.929  0.00  0.00    -0.036 C 
ATOM     20  C   UNL     1      48.379  13.420  16.754  0.00  0.00    +0.034 C 
ATOM     21  C   UNL     1      48.049  11.164  17.713  0.00  0.00    +0.013 C 
ATOM     22  C   UNL     1      46.229  12.821  17.857  0.00  0.00    +0.166 C 
ATOM     25  C   UNL     1      45.839  14.217  18.341  0.00  0.00    -0.013 C 
ATOM     26  C   UNL     1      46.174  14.313  19.819  0.00  0.00    +0.014 C 
ATOM     27  C   UNL     1      47.670  14.122  20.106  0.00  0.00    -0.029 C 
ATOM     28  C   UNL     1      47.676  13.604  21.575  0.00  0.00    +0.005 C 
ATOM     29  C   UNL     1      48.321  15.506  20.092  0.00  0.00    +0.015 C 
ATOM     30  C   UNL     1      47.817  16.241  18.846  0.00  0.00    -0.005 C 
ATOM     31  C   UNL     1      48.400  17.643  18.740  0.00  0.00    +0.025 C 
ATOM     32  C   UNL     1      49.934  17.571  18.696  0.00  0.00    +0.004 C 
ATOM     33  C   UNL     1      50.462  18.971  18.491  0.00  0.00    +0.008 C 
ENDROOT
BRANCH   3   2
ATOM      1  C   UNL     1      51.464  21.160  16.346  0.00  0.00    +0.071 C 
ATOM      2  C   UNL     1      51.718  19.679  16.463  0.00  0.00    -0.090 C 
ATOM     34  C   UNL     1      51.839  18.948  15.381  0.00  0.00    -0.045 C 
ENDBRANCH   3   2
BRANCH   6   7
ATOM      7  C   UNL     1      49.192  20.724  19.778  0.00  0.00    +0.509 C 
ATOM      8  O   UNL     1      48.682  20.978  20.856  0.00  0.00    -0.686 OA
ATOM      9  O   UNL     1      48.691  21.149  18.751  0.00  0.00    -0.699 OA
ENDBRANCH   6   7
BRANCH  22  23
ATOM     23  O   UNL     1      45.796  12.648  16.506  0.00  0.00    -0.565 OA
ATOM     24  H   UNL     1      46.263  13.207  15.869  0.00  0.00    +0.372 HD
ENDBRANCH  22  23
TORSDOF 3
ENDMDL
MODEL 6
REMARK VINA RESULT:      -5.8      2.171      7.057
REMARK  Name = ZINC95486138
REMARK  9 active torsions:
REMARK  status: ('A' for Active; 'I' for Inactive)
REMARK    1  A    between atoms: C1_1  and  C2_2
REMARK    2  A    between atoms: C2_2  and  C4_4
REMARK    3  A    between atoms: C7_8  and  C30_37
REMARK    4  A    between atoms: C13_17  and  C29_36
REMARK    5  A    between atoms: C16_20  and  O1_35
REMARK    6  A    between atoms: C17_22  and  C27_33
REMARK    7  A    between atoms: C17_22  and  C28_34
REMARK    8  A    between atoms: C21_27  and  C26_32
REMARK    9  A    between atoms: C22_28  and  C25_31
REMARK                            x       y       z     vdW  Elec       q    Type
REMARK                         _______ _______ _______ _____ _____    ______ ____
ROOT
ATOM      3  C   UNL     1      45.152  21.877  20.994  0.00  0.00    +0.019 C 
ATOM      4  C   UNL     1      44.339  21.704  22.293  0.00  0.00    -0.002 C 
ATOM      5  C   UNL     1      43.675  20.317  22.166  0.00  0.00    +0.016 C 
ATOM      6  C   UNL     1      44.722  19.459  21.387  0.00  0.00    -0.105 C 
ATOM     10  C   UNL     1      45.611  18.826  22.452  0.00  0.00    -0.001 C 
ATOM     11  C   UNL     1      47.013  18.483  21.967  0.00  0.00    +0.018 C 
ATOM     12  C   UNL     1      47.685  19.741  21.416  0.00  0.00    -0.027 C 
ATOM     13  C   UNL     1      47.667  20.820  22.505  0.00  0.00    +0.009 C 
ATOM     14  C   UNL     1      49.151  19.469  21.044  0.00  0.00    -0.026 C 
ATOM     15  C   UNL     1      49.844  19.032  22.343  0.00  0.00    +0.011 C 
ATOM     16  C   UNL     1      49.813  20.761  20.556  0.00  0.00    +0.016 C 
ATOM     17  C   UNL     1      51.292  20.510  20.289  0.00  0.00    +0.005 C 
ATOM     18  C   UNL     1      51.545  19.412  19.262  0.00  0.00    -0.002 C 
ATOM     19  C   UNL     1      51.790  19.994  17.887  0.00  0.00    -0.036 C 
ATOM     20  C   UNL     1      50.822  21.128  17.540  0.00  0.00    +0.034 C 
ATOM     21  C   UNL     1      53.216  20.606  17.882  0.00  0.00    +0.013 C 
ATOM     22  C   UNL     1      51.761  18.955  16.770  0.00  0.00    +0.166 C 
ATOM     25  C   UNL     1      50.492  18.114  16.897  0.00  0.00    -0.013 C 
ATOM     26  C   UNL     1      50.589  17.309  18.181  0.00  0.00    +0.014 C 
ATOM     27  C   UNL     1      50.690  18.191  19.434  0.00  0.00    -0.029 C 
ATOM     28  C   UNL     1      51.419  17.262  20.450  0.00  0.00    +0.005 C 
ATOM     29  C   UNL     1      49.269  18.427  19.947  0.00  0.00    +0.015 C 
ATOM     30  C   UNL     1      48.403  18.816  18.744  0.00  0.00    -0.005 C 
ATOM     31  C   UNL     1      46.957  19.065  19.145  0.00  0.00    +0.025 C 
ATOM     32  C   UNL     1      46.889  20.183  20.196  0.00  0.00    +0.004 C 
ATOM     33  C   UNL     1      45.434  20.463  20.488  0.00  0.00    +0.008 C 
ENDROOT
BRANCH   3   2
ATOM      1  C   UNL     1      43.008  22.073  19.511  0.00  0.00    +0.071 C 
ATOM      2  C   UNL     1      44.327  22.633  19.979  0.00  0.00    -0.090 C 
ATOM     34  C   UNL     1      44.757  23.777  19.506  0.00  0.00    -0.045 C 
ENDBRANCH   3   2
BRANCH   6   7
ATOM      7  C   UNL     1      44.007  18.390  20.575  0.00  0.00    +0.509 C 
ATOM      8  O   UNL     1      43.980  17.238  20.976  0.00  0.00    -0.686 OA
ATOM      9  O   UNL     1      43.462  18.684  19.526  0.00  0.00    -0.699 OA
ENDBRANCH   6   7
BRANCH  22  23
ATOM     23  O   UNL     1      51.768  19.618  15.503  0.00  0.00    -0.565 OA
ATOM     24  H   UNL     1      50.896  19.920  15.212  0.00  0.00    +0.372 HD
ENDBRANCH  22  23
TORSDOF 3
ENDMDL
MODEL 7
REMARK VINA RESULT:      -5.8      3.442      6.897
REMARK  Name = ZINC95486138
REMARK  9 active torsions:
REMARK  status: ('A' for Active; 'I' for Inactive)
REMARK    1  A    between atoms: C1_1  and  C2_2
REMARK    2  A    between atoms: C2_2  and  C4_4
REMARK    3  A    between atoms: C7_8  and  C30_37
REMARK    4  A    between atoms: C13_17  and  C29_36
REMARK    5  A    between atoms: C16_20  and  O1_35
REMARK    6  A    between atoms: C17_22  and  C27_33
REMARK    7  A    between atoms: C17_22  and  C28_34
REMARK    8  A    between atoms: C21_27  and  C26_32
REMARK    9  A    between atoms: C22_28  and  C25_31
REMARK                            x       y       z     vdW  Elec       q    Type
REMARK                         _______ _______ _______ _____ _____    ______ ____
ROOT
ATOM      3  C   UNL     1      51.935  18.949  17.788  0.00  0.00    +0.019 C 
ATOM      4  C   UNL     1      52.575  19.755  18.936  0.00  0.00    -0.002 C 
ATOM      5  C   UNL     1      51.385  20.371  19.701  0.00  0.00    +0.016 C 
ATOM      6  C   UNL     1      50.258  19.295  19.591  0.00  0.00    -0.105 C 
ATOM     10  C   UNL     1      50.438  18.385  20.801  0.00  0.00    -0.001 C 
ATOM     11  C   UNL     1      49.907  16.972  20.599  0.00  0.00    +0.018 C 
ATOM     12  C   UNL     1      50.580  16.343  19.378  0.00  0.00    -0.027 C 
ATOM     13  C   UNL     1      52.100  16.399  19.575  0.00  0.00    +0.009 C 
ATOM     14  C   UNL     1      50.177  14.868  19.220  0.00  0.00    -0.026 C 
ATOM     15  C   UNL     1      50.650  14.161  20.499  0.00  0.00    +0.011 C 
ATOM     16  C   UNL     1      50.915  14.252  18.028  0.00  0.00    +0.016 C 
ATOM     17  C   UNL     1      50.593  12.765  17.940  0.00  0.00    +0.005 C 
ATOM     18  C   UNL     1      49.104  12.474  17.798  0.00  0.00    -0.002 C 
ATOM     19  C   UNL     1      48.725  12.249  16.351  0.00  0.00    -0.036 C 
ATOM     20  C   UNL     1      49.380  13.256  15.401  0.00  0.00    +0.034 C 
ATOM     21  C   UNL     1      49.244  10.845  15.941  0.00  0.00    +0.013 C 
ATOM     22  C   UNL     1      47.218  12.241  16.107  0.00  0.00    +0.166 C 
ATOM     25  C   UNL     1      46.599  13.481  16.751  0.00  0.00    -0.013 C 
ATOM     26  C   UNL     1      46.755  13.356  18.256  0.00  0.00    +0.014 C 
ATOM     27  C   UNL     1      48.222  13.286  18.701  0.00  0.00    -0.029 C 
ATOM     28  C   UNL     1      48.134  12.525  20.058  0.00  0.00    +0.005 C 
ATOM     29  C   UNL     1      48.685  14.714  18.991  0.00  0.00    +0.015 C 
ATOM     30  C   UNL     1      48.229  15.593  17.822  0.00  0.00    -0.005 C 
ATOM     31  C   UNL     1      48.632  17.047  18.016  0.00  0.00    +0.025 C 
ATOM     32  C   UNL     1      50.158  17.154  18.161  0.00  0.00    +0.004 C 
ATOM     33  C   UNL     1      50.517  18.618  18.250  0.00  0.00    +0.008 C 
ENDROOT
BRANCH   3   2
ATOM      1  C   UNL     1      51.464  21.244  16.628  0.00  0.00    +0.071 C 
ATOM      2  C   UNL     1      51.886  19.800  16.540  0.00  0.00    -0.090 C 
ATOM     34  C   UNL     1      52.211  19.283  15.380  0.00  0.00    -0.045 C 
ENDBRANCH   3   2
BRANCH   6   7
ATOM      7  C   UNL     1      48.897  19.972  19.622  0.00  0.00    +0.509 C 
ATOM      8  O   UNL     1      48.598  20.778  18.756  0.00  0.00    -0.686 OA
ATOM      9  O   UNL     1      48.105  19.709  20.510  0.00  0.00    -0.699 OA
ENDBRANCH   6   7
BRANCH  22  23
ATOM     23  O   UNL     1      46.963  12.258  14.701  0.00  0.00    -0.565 OA
ATOM     24  H   UNL     1      46.598  13.093  14.377  0.00  0.00    +0.372 HD
ENDBRANCH  22  23
TORSDOF 3
ENDMDL
MODEL 8
REMARK VINA RESULT:      -5.8      2.461      7.299
REMARK  Name = ZINC95486138
REMARK  9 active torsions:
REMARK  status: ('A' for Active; 'I' for Inactive)
REMARK    1  A    between atoms: C1_1  and  C2_2
REMARK    2  A    between atoms: C2_2  and  C4_4
REMARK    3  A    between atoms: C7_8  and  C30_37
REMARK    4  A    between atoms: C13_17  and  C29_36
REMARK    5  A    between atoms: C16_20  and  O1_35
REMARK    6  A    between atoms: C17_22  and  C27_33
REMARK    7  A    between atoms: C17_22  and  C28_34
REMARK    8  A    between atoms: C21_27  and  C26_32
REMARK    9  A    between atoms: C22_28  and  C25_31
REMARK                            x       y       z     vdW  Elec       q    Type
REMARK                         _______ _______ _______ _____ _____    ______ ____
ROOT
ATOM      3  C   UNL     1      43.654  19.213  19.702  0.00  0.00    +0.019 C 
ATOM      4  C   UNL     1      43.467  20.534  18.929  0.00  0.00    -0.002 C 
ATOM      5  C   UNL     1      44.350  21.558  19.671  0.00  0.00    +0.016 C 
ATOM      6  C   UNL     1      45.575  20.723  20.166  0.00  0.00    -0.105 C 
ATOM     10  C   UNL     1      46.603  20.796  19.043  0.00  0.00    -0.001 C 
ATOM     11  C   UNL     1      47.562  19.614  19.001  0.00  0.00    +0.018 C 
ATOM     12  C   UNL     1      46.765  18.313  18.886  0.00  0.00    -0.027 C 
ATOM     13  C   UNL     1      45.860  18.404  17.652  0.00  0.00    +0.009 C 
ATOM     14  C   UNL     1      47.698  17.106  18.701  0.00  0.00    -0.026 C 
ATOM     15  C   UNL     1      48.471  17.362  17.399  0.00  0.00    +0.011 C 
ATOM     16  C   UNL     1      46.869  15.830  18.526  0.00  0.00    +0.016 C 
ATOM     17  C   UNL     1      47.794  14.654  18.239  0.00  0.00    +0.005 C 
ATOM     18  C   UNL     1      48.832  14.417  19.330  0.00  0.00    -0.002 C 
ATOM     19  C   UNL     1      48.384  13.334  20.287  0.00  0.00    -0.036 C 
ATOM     20  C   UNL     1      46.909  13.460  20.678  0.00  0.00    +0.034 C 
ATOM     21  C   UNL     1      48.540  11.972  19.562  0.00  0.00    +0.013 C 
ATOM     22  C   UNL     1      49.231  13.251  21.554  0.00  0.00    +0.166 C 
ATOM     25  C   UNL     1      49.355  14.644  22.169  0.00  0.00    -0.013 C 
ATOM     26  C   UNL     1      50.160  15.508  21.214  0.00  0.00    +0.014 C 
ATOM     27  C   UNL     1      49.492  15.664  19.841  0.00  0.00    -0.029 C 
ATOM     28  C   UNL     1      50.700  15.959  18.903  0.00  0.00    +0.005 C 
ATOM     29  C   UNL     1      48.619  16.918  19.893  0.00  0.00    +0.015 C 
ATOM     30  C   UNL     1      47.808  16.862  21.192  0.00  0.00    -0.005 C 
ATOM     31  C   UNL     1      46.906  18.078  21.349  0.00  0.00    +0.025 C 
ATOM     32  C   UNL     1      45.942  18.173  20.158  0.00  0.00    +0.004 C 
ATOM     33  C   UNL     1      45.004  19.330  20.407  0.00  0.00    +0.008 C 
ENDROOT
BRANCH   3   2
ATOM      1  C   UNL     1      42.883  18.692  22.145  0.00  0.00    +0.071 C 
ATOM      2  C   UNL     1      42.550  19.064  20.723  0.00  0.00    -0.090 C 
ATOM     34  C   UNL     1      41.302  19.258  20.373  0.00  0.00    -0.045 C 
ENDBRANCH   3   2
BRANCH   6   7
ATOM      7  C   UNL     1      46.128  21.331  21.445  0.00  0.00    +0.509 C 
ATOM      8  O   UNL     1      47.143  22.007  21.409  0.00  0.00    -0.686 OA
ATOM      9  O   UNL     1      45.557  21.144  22.505  0.00  0.00    -0.699 OA
ENDBRANCH   6   7
BRANCH  22  23
ATOM     23  O   UNL     1      48.601  12.372  22.490  0.00  0.00    -0.565 OA
ATOM     24  H   UNL     1      49.030  12.347  23.356  0.00  0.00    +0.372 HD
ENDBRANCH  22  23
TORSDOF 3
ENDMDL
MODEL 9
REMARK VINA RESULT:      -5.7      2.945      6.664
REMARK  Name = ZINC95486138
REMARK  9 active torsions:
REMARK  status: ('A' for Active; 'I' for Inactive)
REMARK    1  A    between atoms: C1_1  and  C2_2
REMARK    2  A    between atoms: C2_2  and  C4_4
REMARK    3  A    between atoms: C7_8  and  C30_37
REMARK    4  A    between atoms: C13_17  and  C29_36
REMARK    5  A    between atoms: C16_20  and  O1_35
REMARK    6  A    between atoms: C17_22  and  C27_33
REMARK    7  A    between atoms: C17_22  and  C28_34
REMARK    8  A    between atoms: C21_27  and  C26_32
REMARK    9  A    between atoms: C22_28  and  C25_31
REMARK                            x       y       z     vdW  Elec       q    Type
REMARK                         _______ _______ _______ _____ _____    ______ ____
ROOT
ATOM      3  C   UNL     1      50.260  19.977  20.229  0.00  0.00    +0.019 C 
ATOM      4  C   UNL     1      50.034  20.743  21.548  0.00  0.00    -0.002 C 
ATOM      5  C   UNL     1      48.584  21.263  21.462  0.00  0.00    +0.016 C 
ATOM      6  C   UNL     1      47.820  20.147  20.679  0.00  0.00    -0.105 C 
ATOM     10  C   UNL     1      47.307  19.179  21.738  0.00  0.00    -0.001 C 
ATOM     11  C   UNL     1      47.098  17.758  21.232  0.00  0.00    +0.018 C 
ATOM     12  C   UNL     1      48.407  17.229  20.643  0.00  0.00    -0.027 C 
ATOM     13  C   UNL     1      49.502  17.339  21.710  0.00  0.00    +0.009 C 
ATOM     14  C   UNL     1      48.278  15.749  20.246  0.00  0.00    -0.026 C 
ATOM     15  C   UNL     1      47.944  14.992  21.540  0.00  0.00    +0.011 C 
ATOM     16  C   UNL     1      49.621  15.233  19.720  0.00  0.00    +0.016 C 
ATOM     17  C   UNL     1      49.517  13.742  19.427  0.00  0.00    +0.005 C 
ATOM     18  C   UNL     1      48.428  13.395  18.418  0.00  0.00    -0.002 C 
ATOM     19  C   UNL     1      49.002  13.236  17.027  0.00  0.00    -0.036 C 
ATOM     20  C   UNL     1      50.022  14.322  16.677  0.00  0.00    +0.034 C 
ATOM     21  C   UNL     1      49.757  11.882  16.981  0.00  0.00    +0.013 C 
ATOM     22  C   UNL     1      47.940  13.178  15.932  0.00  0.00    +0.166 C 
ATOM     25  C   UNL     1      46.977  14.352  16.102  0.00  0.00    -0.013 C 
ATOM     26  C   UNL     1      46.215  14.149  17.399  0.00  0.00    +0.014 C 
ATOM     27  C   UNL     1      47.129  14.116  18.632  0.00  0.00    -0.029 C 
ATOM     28  C   UNL     1      46.303  13.277  19.651  0.00  0.00    +0.005 C 
ATOM     29  C   UNL     1      47.230  15.544  19.168  0.00  0.00    +0.015 C 
ATOM     30  C   UNL     1      47.501  16.468  17.976  0.00  0.00    -0.005 C 
ATOM     31  C   UNL     1      47.609  17.925  18.401  0.00  0.00    +0.025 C 
ATOM     32  C   UNL     1      48.737  18.088  19.431  0.00  0.00    +0.004 C 
ATOM     33  C   UNL     1      48.873  19.559  19.746  0.00  0.00    +0.008 C 
ENDROOT
BRANCH   3   2
ATOM      1  C   UNL     1      52.214  21.570  19.536  0.00  0.00    +0.071 C 
ATOM      2  C   UNL     1      50.905  20.893  19.216  0.00  0.00    -0.090 C 
ATOM     34  C   UNL     1      50.328  21.100  18.058  0.00  0.00    -0.045 C 
ENDBRANCH   3   2
BRANCH   6   7
ATOM      7  C   UNL     1      46.666  20.762  19.904  0.00  0.00    +0.509 C 
ATOM      8  O   UNL     1      46.838  21.149  18.760  0.00  0.00    -0.686 OA
ATOM      9  O   UNL     1      45.569  20.868  20.425  0.00  0.00    -0.699 OA
ENDBRANCH   6   7
BRANCH  22  23
ATOM     23  O   UNL     1      48.572  13.263  14.652  0.00  0.00    -0.565 OA
ATOM     24  H   UNL     1      49.173  12.529  14.461  0.00  0.00    +0.372 HD
ENDBRANCH  22  23
TORSDOF 3
ENDMDL
