MODEL 1
REMARK VINA RESULT:      -5.6      0.000      0.000
REMARK  Name = ZINC03589229
REMARK  4 active torsions:
REMARK  status: ('A' for Active; 'I' for Inactive)
REMARK    1  A    between atoms: C1_1  and  C2_2
REMARK    2  A    between atoms: C3_4  and  C11_17
REMARK    3  A    between atoms: C6_9  and  O4_16
REMARK    4  A    between atoms: C8_11  and  O3_15
REMARK                            x       y       z     vdW  Elec       q    Type
REMARK                         _______ _______ _______ _____ _____    ______ ____
ROOT
ATOM      1  C   UNL     1      46.308  19.803  20.779  0.00  0.00    +0.068 C 
ATOM      2  C   UNL     1      44.781  19.877  20.719  0.00  0.00    -0.052 C 
ATOM      3  C   UNL     1      44.235  18.715  19.876  0.00  0.00    +0.179 C 
ATOM      4  C   UNL     1      44.610  17.386  20.532  0.00  0.00    +0.086 C 
ATOM      5  O   UNL     1      42.814  18.821  19.792  0.00  0.00    -0.302 OA
ATOM      6  C   UNL     1      42.272  19.992  19.381  0.00  0.00    +0.214 A 
ATOM      7  C   UNL     1      40.996  20.013  18.847  0.00  0.00    -0.054 A 
ATOM      8  C   UNL     1      40.432  21.212  18.432  0.00  0.00    +0.197 A 
ATOM     11  C   UNL     1      41.136  22.405  18.547  0.00  0.00    -0.077 A 
ATOM     12  C   UNL     1      42.414  22.406  19.077  0.00  0.00    +0.221 A 
ATOM     15  C   UNL     1      42.994  21.195  19.487  0.00  0.00    -0.293 A 
ATOM     16  C   UNL     1      44.351  21.165  20.043  0.00  0.00    +0.399 C 
ATOM     17  O   UNL     1      45.094  22.122  19.961  0.00  0.00    -0.422 OA
ENDROOT
BRANCH   8   9
ATOM      9  O   UNL     1      39.180  21.220  17.907  0.00  0.00    -0.491 OA
ATOM     10  H   UNL     1      39.154  21.363  16.952  0.00  0.00    +0.403 HD
ENDBRANCH   8   9
BRANCH  12  13
ATOM     13  O   UNL     1      43.103  23.568  19.193  0.00  0.00    -0.477 OA
ATOM     14  H   UNL     1      42.594  24.353  18.948  0.00  0.00    +0.401 HD
ENDBRANCH  12  13
TORSDOF 2
ENDMDL
MODEL 2
REMARK VINA RESULT:      -5.3      1.775      2.909
REMARK  Name = ZINC03589229
REMARK  4 active torsions:
REMARK  status: ('A' for Active; 'I' for Inactive)
REMARK    1  A    between atoms: C1_1  and  C2_2
REMARK    2  A    between atoms: C3_4  and  C11_17
REMARK    3  A    between atoms: C6_9  and  O4_16
REMARK    4  A    between atoms: C8_11  and  O3_15
REMARK                            x       y       z     vdW  Elec       q    Type
REMARK                         _______ _______ _______ _____ _____    ______ ____
ROOT
ATOM      1  C   UNL     1      45.705  17.543  20.784  0.00  0.00    +0.068 C 
ATOM      2  C   UNL     1      44.624  18.113  19.863  0.00  0.00    -0.052 C 
ATOM      3  C   UNL     1      45.072  19.475  19.312  0.00  0.00    +0.179 C 
ATOM      4  C   UNL     1      46.344  19.297  18.480  0.00  0.00    +0.086 C 
ATOM      5  O   UNL     1      44.038  20.015  18.490  0.00  0.00    -0.302 OA
ATOM      6  C   UNL     1      42.785  20.106  18.997  0.00  0.00    +0.214 A 
ATOM      7  C   UNL     1      41.886  21.009  18.459  0.00  0.00    -0.054 A 
ATOM      8  C   UNL     1      40.598  21.101  18.970  0.00  0.00    +0.197 A 
ATOM     11  C   UNL     1      40.192  20.289  20.023  0.00  0.00    -0.077 A 
ATOM     12  C   UNL     1      41.077  19.379  20.576  0.00  0.00    +0.221 A 
ATOM     15  C   UNL     1      42.384  19.291  20.072  0.00  0.00    -0.293 A 
ATOM     16  C   UNL     1      43.345  18.344  20.647  0.00  0.00    +0.399 C 
ATOM     17  O   UNL     1      43.130  17.777  21.698  0.00  0.00    -0.422 OA
ENDROOT
BRANCH   8   9
ATOM      9  O   UNL     1      39.725  21.992  18.436  0.00  0.00    -0.491 OA
ATOM     10  H   UNL     1      39.725  22.012  17.470  0.00  0.00    +0.403 HD
ENDBRANCH   8   9
BRANCH  12  13
ATOM     13  O   UNL     1      40.684  18.584  21.602  0.00  0.00    -0.477 OA
ATOM     14  H   UNL     1      41.280  17.842  21.774  0.00  0.00    +0.401 HD
ENDBRANCH  12  13
TORSDOF 2
ENDMDL
MODEL 3
REMARK VINA RESULT:      -5.1      1.983      4.246
REMARK  Name = ZINC03589229
REMARK  4 active torsions:
REMARK  status: ('A' for Active; 'I' for Inactive)
REMARK    1  A    between atoms: C1_1  and  C2_2
REMARK    2  A    between atoms: C3_4  and  C11_17
REMARK    3  A    between atoms: C6_9  and  O4_16
REMARK    4  A    between atoms: C8_11  and  O3_15
REMARK                            x       y       z     vdW  Elec       q    Type
REMARK                         _______ _______ _______ _____ _____    ______ ____
ROOT
ATOM      1  C   UNL     1      41.227  19.448  19.397  0.00  0.00    +0.068 C 
ATOM      2  C   UNL     1      42.675  19.876  19.647  0.00  0.00    -0.052 C 
ATOM      3  C   UNL     1      43.094  19.495  21.074  0.00  0.00    +0.179 C 
ATOM      4  C   UNL     1      43.025  17.976  21.240  0.00  0.00    +0.086 C 
ATOM      5  O   UNL     1      44.431  19.939  21.308  0.00  0.00    -0.302 OA
ATOM      6  C   UNL     1      44.739  21.234  21.060  0.00  0.00    +0.214 A 
ATOM      7  C   UNL     1      45.829  21.816  21.682  0.00  0.00    -0.054 A 
ATOM      8  C   UNL     1      46.154  23.142  21.426  0.00  0.00    +0.197 A 
ATOM     11  C   UNL     1      45.394  23.901  20.544  0.00  0.00    -0.077 A 
ATOM     12  C   UNL     1      44.299  23.339  19.912  0.00  0.00    +0.221 A 
ATOM     15  C   UNL     1      43.958  22.003  20.176  0.00  0.00    -0.293 A 
ATOM     16  C   UNL     1      42.796  21.384  19.529  0.00  0.00    +0.399 C 
ATOM     17  O   UNL     1      41.971  22.046  18.934  0.00  0.00    -0.422 OA
ENDROOT
BRANCH   8   9
ATOM      9  O   UNL     1      47.224  23.702  22.044  0.00  0.00    -0.491 OA
ATOM     10  H   UNL     1      47.040  24.021  22.938  0.00  0.00    +0.403 HD
ENDBRANCH   8   9
BRANCH  12  13
ATOM     13  O   UNL     1      43.557  24.075  19.049  0.00  0.00    -0.477 OA
ATOM     14  H   UNL     1      44.062  24.746  18.569  0.00  0.00    +0.401 HD
ENDBRANCH  12  13
TORSDOF 2
ENDMDL
MODEL 4
REMARK VINA RESULT:      -5.0     21.042     22.235
REMARK  Name = ZINC03589229
REMARK  4 active torsions:
REMARK  status: ('A' for Active; 'I' for Inactive)
REMARK    1  A    between atoms: C1_1  and  C2_2
REMARK    2  A    between atoms: C3_4  and  C11_17
REMARK    3  A    between atoms: C6_9  and  O4_16
REMARK    4  A    between atoms: C8_11  and  O3_15
REMARK                            x       y       z     vdW  Elec       q    Type
REMARK                         _______ _______ _______ _____ _____    ______ ____
ROOT
ATOM      1  C   UNL     1      56.384  33.219   2.653  0.00  0.00    +0.068 C 
ATOM      2  C   UNL     1      55.212  32.749   3.518  0.00  0.00    -0.052 C 
ATOM      3  C   UNL     1      53.918  32.750   2.691  0.00  0.00    +0.179 C 
ATOM      4  C   UNL     1      54.056  31.770   1.525  0.00  0.00    +0.086 C 
ATOM      5  O   UNL     1      52.828  32.351   3.521  0.00  0.00    -0.302 OA
ATOM      6  C   UNL     1      52.633  32.999   4.694  0.00  0.00    +0.214 A 
ATOM      7  C   UNL     1      51.384  32.989   5.290  0.00  0.00    -0.054 A 
ATOM      8  C   UNL     1      51.181  33.645   6.497  0.00  0.00    +0.197 A 
ATOM     11  C   UNL     1      52.223  34.318   7.124  0.00  0.00    -0.077 A 
ATOM     12  C   UNL     1      53.480  34.341   6.545  0.00  0.00    +0.221 A 
ATOM     15  C   UNL     1      53.688  33.690   5.319  0.00  0.00    -0.293 A 
ATOM     16  C   UNL     1      55.007  33.708   4.676  0.00  0.00    +0.399 C 
ATOM     17  O   UNL     1      55.887  34.455   5.050  0.00  0.00    -0.422 OA
ENDROOT
BRANCH   8   9
ATOM      9  O   UNL     1      49.951  33.630   7.070  0.00  0.00    -0.491 OA
ATOM     10  H   UNL     1      49.952  33.357   7.997  0.00  0.00    +0.403 HD
ENDBRANCH   8   9
BRANCH  12  13
ATOM     13  O   UNL     1      54.500  34.994   7.154  0.00  0.00    -0.477 OA
ATOM     14  H   UNL     1      54.245  35.446   7.970  0.00  0.00    +0.401 HD
ENDBRANCH  12  13
TORSDOF 2
ENDMDL
MODEL 5
REMARK VINA RESULT:      -4.7     21.400     22.713
REMARK  Name = ZINC03589229
REMARK  4 active torsions:
REMARK  status: ('A' for Active; 'I' for Inactive)
REMARK    1  A    between atoms: C1_1  and  C2_2
REMARK    2  A    between atoms: C3_4  and  C11_17
REMARK    3  A    between atoms: C6_9  and  O4_16
REMARK    4  A    between atoms: C8_11  and  O3_15
REMARK                            x       y       z     vdW  Elec       q    Type
REMARK                         _______ _______ _______ _____ _____    ______ ____
ROOT
ATOM      1  C   UNL     1      52.546  35.066   7.388  0.00  0.00    +0.068 C 
ATOM      2  C   UNL     1      52.957  34.448   6.049  0.00  0.00    -0.052 C 
ATOM      3  C   UNL     1      52.409  33.017   5.944  0.00  0.00    +0.179 C 
ATOM      4  C   UNL     1      50.880  33.050   5.991  0.00  0.00    +0.086 C 
ATOM      5  O   UNL     1      52.836  32.438   4.712  0.00  0.00    -0.302 OA
ATOM      6  C   UNL     1      54.154  32.457   4.406  0.00  0.00    +0.214 A 
ATOM      7  C   UNL     1      54.669  31.541   3.505  0.00  0.00    -0.054 A 
ATOM      8  C   UNL     1      56.019  31.561   3.183  0.00  0.00    +0.197 A 
ATOM     11  C   UNL     1      56.872  32.497   3.755  0.00  0.00    -0.077 A 
ATOM     12  C   UNL     1      56.379  33.421   4.660  0.00  0.00    +0.221 A 
ATOM     15  C   UNL     1      55.017  33.398   4.999  0.00  0.00    -0.293 A 
ATOM     16  C   UNL     1      54.469  34.358   5.963  0.00  0.00    +0.399 C 
ATOM     17  O   UNL     1      55.189  35.043   6.660  0.00  0.00    -0.422 OA
ENDROOT
BRANCH   8   9
ATOM      9  O   UNL     1      56.512  30.656   2.299  0.00  0.00    -0.491 OA
ATOM     10  H   UNL     1      56.430  30.924   1.375  0.00  0.00    +0.403 HD
ENDBRANCH   8   9
BRANCH  12  13
ATOM     13  O   UNL     1      57.207  34.337   5.219  0.00  0.00    -0.477 OA
ATOM     14  H   UNL     1      57.796  34.772   4.587  0.00  0.00    +0.401 HD
ENDBRANCH  12  13
TORSDOF 2
ENDMDL
MODEL 6
REMARK VINA RESULT:      -4.7     21.161     22.588
REMARK  Name = ZINC03589229
REMARK  4 active torsions:
REMARK  status: ('A' for Active; 'I' for Inactive)
REMARK    1  A    between atoms: C1_1  and  C2_2
REMARK    2  A    between atoms: C3_4  and  C11_17
REMARK    3  A    between atoms: C6_9  and  O4_16
REMARK    4  A    between atoms: C8_11  and  O3_15
REMARK                            x       y       z     vdW  Elec       q    Type
REMARK                         _______ _______ _______ _____ _____    ______ ____
ROOT
ATOM      1  C   UNL     1      51.113  32.047   0.672  0.00  0.00    +0.068 C 
ATOM      2  C   UNL     1      52.106  32.715   1.626  0.00  0.00    -0.052 C 
ATOM      3  C   UNL     1      53.371  31.854   1.750  0.00  0.00    +0.179 C 
ATOM      4  C   UNL     1      54.048  31.739   0.384  0.00  0.00    +0.086 C 
ATOM      5  O   UNL     1      54.269  32.466   2.676  0.00  0.00    -0.302 OA
ATOM      6  C   UNL     1      53.809  32.800   3.905  0.00  0.00    +0.214 A 
ATOM      7  C   UNL     1      54.694  32.948   4.958  0.00  0.00    -0.054 A 
ATOM      8  C   UNL     1      54.228  33.298   6.218  0.00  0.00    +0.197 A 
ATOM     11  C   UNL     1      52.872  33.505   6.441  0.00  0.00    -0.077 A 
ATOM     12  C   UNL     1      51.969  33.361   5.402  0.00  0.00    +0.221 A 
ATOM     15  C   UNL     1      52.433  32.995   4.129  0.00  0.00    -0.293 A 
ATOM     16  C   UNL     1      51.498  32.824   3.012  0.00  0.00    +0.399 C 
ATOM     17  O   UNL     1      50.298  32.768   3.189  0.00  0.00    -0.422 OA
ENDROOT
BRANCH   8   9
ATOM      9  O   UNL     1      55.106  33.439   7.243  0.00  0.00    -0.491 OA
ATOM     10  H   UNL     1      54.709  33.333   8.118  0.00  0.00    +0.403 HD
ENDBRANCH   8   9
BRANCH  12  13
ATOM     13  O   UNL     1      50.646  33.564   5.615  0.00  0.00    -0.477 OA
ATOM     14  H   UNL     1      50.409  34.490   5.766  0.00  0.00    +0.401 HD
ENDBRANCH  12  13
TORSDOF 2
ENDMDL
MODEL 7
REMARK VINA RESULT:      -4.6      7.142      8.544
REMARK  Name = ZINC03589229
REMARK  4 active torsions:
REMARK  status: ('A' for Active; 'I' for Inactive)
REMARK    1  A    between atoms: C1_1  and  C2_2
REMARK    2  A    between atoms: C3_4  and  C11_17
REMARK    3  A    between atoms: C6_9  and  O4_16
REMARK    4  A    between atoms: C8_11  and  O3_15
REMARK                            x       y       z     vdW  Elec       q    Type
REMARK                         _______ _______ _______ _____ _____    ______ ____
ROOT
ATOM      1  C   UNL     1      48.696  15.708  19.395  0.00  0.00    +0.068 C 
ATOM      2  C   UNL     1      49.102  16.676  18.281  0.00  0.00    -0.052 C 
ATOM      3  C   UNL     1      50.412  16.207  17.632  0.00  0.00    +0.179 C 
ATOM      4  C   UNL     1      50.204  14.831  16.998  0.00  0.00    +0.086 C 
ATOM      5  O   UNL     1      50.802  17.141  16.626  0.00  0.00    -0.302 OA
ATOM      6  C   UNL     1      50.887  18.452  16.954  0.00  0.00    +0.214 A 
ATOM      7  C   UNL     1      51.676  19.303  16.201  0.00  0.00    -0.054 A 
ATOM      8  C   UNL     1      51.761  20.650  16.529  0.00  0.00    +0.197 A 
ATOM     11  C   UNL     1      51.056  21.163  17.611  0.00  0.00    -0.077 A 
ATOM     12  C   UNL     1      50.262  20.329  18.378  0.00  0.00    +0.221 A 
ATOM     15  C   UNL     1      50.182  18.965  18.060  0.00  0.00    -0.293 A 
ATOM     16  C   UNL     1      49.356  18.055  18.862  0.00  0.00    +0.399 C 
ATOM     17  O   UNL     1      48.904  18.388  19.938  0.00  0.00    -0.422 OA
ENDROOT
BRANCH   8   9
ATOM      9  O   UNL     1      52.540  21.474  15.784  0.00  0.00    -0.491 OA
ATOM     10  H   UNL     1      52.059  21.965  15.105  0.00  0.00    +0.403 HD
ENDBRANCH   8   9
BRANCH  12  13
ATOM     13  O   UNL     1      49.571  20.826  19.433  0.00  0.00    -0.477 OA
ATOM     14  H   UNL     1      48.611  20.800  19.322  0.00  0.00    +0.401 HD
ENDBRANCH  12  13
TORSDOF 2
ENDMDL
MODEL 8
REMARK VINA RESULT:      -4.6     21.104     22.303
REMARK  Name = ZINC03589229
REMARK  4 active torsions:
REMARK  status: ('A' for Active; 'I' for Inactive)
REMARK    1  A    between atoms: C1_1  and  C2_2
REMARK    2  A    between atoms: C3_4  and  C11_17
REMARK    3  A    between atoms: C6_9  and  O4_16
REMARK    4  A    between atoms: C8_11  and  O3_15
REMARK                            x       y       z     vdW  Elec       q    Type
REMARK                         _______ _______ _______ _____ _____    ______ ____
ROOT
ATOM      1  C   UNL     1      56.683  32.726   2.849  0.00  0.00    +0.068 C 
ATOM      2  C   UNL     1      55.598  33.426   3.671  0.00  0.00    -0.052 C 
ATOM      3  C   UNL     1      55.807  33.139   5.165  0.00  0.00    +0.179 C 
ATOM      4  C   UNL     1      57.159  33.700   5.609  0.00  0.00    +0.086 C 
ATOM      5  O   UNL     1      54.764  33.761   5.915  0.00  0.00    -0.302 OA
ATOM      6  C   UNL     1      53.478  33.516   5.568  0.00  0.00    +0.214 A 
ATOM      7  C   UNL     1      52.467  33.691   6.495  0.00  0.00    -0.054 A 
ATOM      8  C   UNL     1      51.145  33.449   6.143  0.00  0.00    +0.197 A 
ATOM     11  C   UNL     1      50.820  33.029   4.858  0.00  0.00    -0.077 A 
ATOM     12  C   UNL     1      51.816  32.845   3.916  0.00  0.00    +0.221 A 
ATOM     15  C   UNL     1      53.154  33.077   4.270  0.00  0.00    -0.293 A 
ATOM     16  C   UNL     1      54.232  32.881   3.295  0.00  0.00    +0.399 C 
ATOM     17  O   UNL     1      54.042  32.306   2.243  0.00  0.00    -0.422 OA
ENDROOT
BRANCH   8   9
ATOM      9  O   UNL     1      50.162  33.623   7.061  0.00  0.00    -0.491 OA
ATOM     10  H   UNL     1      49.463  32.957   7.020  0.00  0.00    +0.403 HD
ENDBRANCH   8   9
BRANCH  12  13
ATOM     13  O   UNL     1      51.502  32.439   2.661  0.00  0.00    -0.477 OA
ATOM     14  H   UNL     1      52.259  32.124   2.149  0.00  0.00    +0.401 HD
ENDBRANCH  12  13
TORSDOF 2
ENDMDL
MODEL 9
REMARK VINA RESULT:      -4.5      6.430      8.528
REMARK  Name = ZINC03589229
REMARK  4 active torsions:
REMARK  status: ('A' for Active; 'I' for Inactive)
REMARK    1  A    between atoms: C1_1  and  C2_2
REMARK    2  A    between atoms: C3_4  and  C11_17
REMARK    3  A    between atoms: C6_9  and  O4_16
REMARK    4  A    between atoms: C8_11  and  O3_15
REMARK                            x       y       z     vdW  Elec       q    Type
REMARK                         _______ _______ _______ _____ _____    ______ ____
ROOT
ATOM      1  C   UNL     1      48.469  20.417  20.708  0.00  0.00    +0.068 C 
ATOM      2  C   UNL     1      48.758  19.689  19.393  0.00  0.00    -0.052 C 
ATOM      3  C   UNL     1      49.148  18.232  19.677  0.00  0.00    +0.179 C 
ATOM      4  C   UNL     1      47.982  17.513  20.358  0.00  0.00    +0.086 C 
ATOM      5  O   UNL     1      49.457  17.578  18.447  0.00  0.00    -0.302 OA
ATOM      6  C   UNL     1      50.360  18.150  17.615  0.00  0.00    +0.214 A 
ATOM      7  C   UNL     1      51.027  17.376  16.682  0.00  0.00    -0.054 A 
ATOM      8  C   UNL     1      51.948  17.959  15.821  0.00  0.00    +0.197 A 
ATOM     11  C   UNL     1      52.212  19.322  15.882  0.00  0.00    -0.077 A 
ATOM     12  C   UNL     1      51.557  20.114  16.809  0.00  0.00    +0.221 A 
ATOM     15  C   UNL     1      50.634  19.529  17.689  0.00  0.00    -0.293 A 
ATOM     16  C   UNL     1      49.933  20.342  18.689  0.00  0.00    +0.399 C 
ATOM     17  O   UNL     1      50.280  21.477  18.943  0.00  0.00    -0.422 OA
ENDROOT
BRANCH   8   9
ATOM      9  O   UNL     1      52.597  17.190  14.912  0.00  0.00    -0.491 OA
ATOM     10  H   UNL     1      52.656  16.257  15.155  0.00  0.00    +0.403 HD
ENDBRANCH   8   9
BRANCH  12  13
ATOM     13  O   UNL     1      51.811  21.445  16.870  0.00  0.00    -0.477 OA
ATOM     14  H   UNL     1      52.531  21.681  17.470  0.00  0.00    +0.401 HD
ENDBRANCH  12  13
TORSDOF 2
ENDMDL
