MODEL 1
REMARK VINA RESULT:      -6.1      0.000      0.000
REMARK  Name = ZINC95486255
REMARK  10 active torsions:
REMARK  status: ('A' for Active; 'I' for Inactive)
REMARK    1  A    between atoms: C1_1  and  O1_2
REMARK    2  A    between atoms: O1_2  and  C2_3
REMARK    3  A    between atoms: C3_4  and  C8_10
REMARK    4  A    between atoms: C7_8  and  O2_9
REMARK    5  A    between atoms: C13_17  and  O8_26
REMARK    6  A    between atoms: C14_18  and  O7_25
REMARK    7  A    between atoms: C15_19  and  O6_23
REMARK    8  A    between atoms: C16_20  and  O5_21
REMARK    9  A    between atoms: O5_21  and  C17_22
REMARK   10  A    between atoms: O6_23  and  C18_24
REMARK                            x       y       z     vdW  Elec       q    Type
REMARK                         _______ _______ _______ _____ _____    ______ ____
ROOT
ATOM      5  C   UNL     1      45.218  18.788  19.839  0.00  0.00    -0.242 A 
ATOM      6  C   UNL     1      44.814  17.818  20.700  0.00  0.00    +0.347 A 
ATOM      7  O   UNL     1      44.799  16.524  20.372  0.00  0.00    -0.202 OA
ATOM      8  C   UNL     1      45.460  16.057  19.293  0.00  0.00    +0.146 A 
ATOM      9  C   UNL     1      45.919  16.945  18.303  0.00  0.00    -0.232 A 
ATOM     10  C   UNL     1      46.593  16.465  17.175  0.00  0.00    +0.184 A 
ATOM     13  C   UNL     1      46.818  15.103  17.043  0.00  0.00    +0.047 A 
ATOM     16  C   UNL     1      46.373  14.224  18.027  0.00  0.00    +0.132 A 
ATOM     19  C   UNL     1      45.698  14.694  19.145  0.00  0.00    +0.062 A 
ATOM     22  C   UNL     1      45.665  18.385  18.492  0.00  0.00    +0.433 A 
ATOM     23  O   UNL     1      45.819  19.193  17.593  0.00  0.00    -0.427 OA
ENDROOT
BRANCH   5   4
ATOM      3  C   UNL     1      44.137  21.039  19.867  0.00  0.00    +0.086 A 
ATOM      4  C   UNL     1      45.203  20.217  20.241  0.00  0.00    -0.030 A 
ATOM     24  C   UNL     1      46.252  20.743  20.993  0.00  0.00    +0.036 A 
ATOM     25  C   UNL     1      46.235  22.071  21.366  0.00  0.00    +0.030 A 
ATOM     26  C   UNL     1      45.180  22.886  20.996  0.00  0.00    +0.010 A 
ATOM     27  C   UNL     1      44.134  22.376  20.244  0.00  0.00    +0.092 A 
BRANCH   3   2
ATOM      1  C   UNL     1      42.006  19.981  19.855  0.00  0.00    +0.232 C 
ATOM      2  O   UNL     1      43.110  20.533  19.134  0.00  0.00    -0.331 OA
ENDBRANCH   3   2
BRANCH  27  28
ATOM     28  O   UNL     1      43.102  23.183  19.877  0.00  0.00    -0.490 OA
ATOM     29  H   UNL     1      42.654  22.903  19.067  0.00  0.00    +0.394 HD
ENDBRANCH  27  28
ENDBRANCH   5   4
BRANCH  10  11
ATOM     11  O   UNL     1      47.023  17.326  16.216  0.00  0.00    -0.458 OA
ATOM     12  H   UNL     1      46.505  18.141  16.159  0.00  0.00    +0.398 HD
ENDBRANCH  10  11
BRANCH  13  14
ATOM     14  O   UNL     1      47.475  14.626  15.951  0.00  0.00    -0.463 OA
ATOM     15  H   UNL     1      46.913  14.517  15.170  0.00  0.00    +0.388 HD
ENDBRANCH  13  14
BRANCH  16  17
ATOM     17  O   UNL     1      46.601  12.892  17.891  0.00  0.00    -0.315 OA
ATOM     18  C   UNL     1      45.638  12.139  17.152  0.00  0.00    +0.246 C 
ENDBRANCH  16  17
BRANCH  19  20
ATOM     20  O   UNL     1      45.268  13.821  20.098  0.00  0.00    -0.314 OA
ATOM     21  C   UNL     1      46.166  13.545  21.176  0.00  0.00    +0.240 C 
ENDBRANCH  19  20
TORSDOF 7
ENDMDL
MODEL 2
REMARK VINA RESULT:      -5.7      1.376      3.286
REMARK  Name = ZINC95486255
REMARK  10 active torsions:
REMARK  status: ('A' for Active; 'I' for Inactive)
REMARK    1  A    between atoms: C1_1  and  O1_2
REMARK    2  A    between atoms: O1_2  and  C2_3
REMARK    3  A    between atoms: C3_4  and  C8_10
REMARK    4  A    between atoms: C7_8  and  O2_9
REMARK    5  A    between atoms: C13_17  and  O8_26
REMARK    6  A    between atoms: C14_18  and  O7_25
REMARK    7  A    between atoms: C15_19  and  O6_23
REMARK    8  A    between atoms: C16_20  and  O5_21
REMARK    9  A    between atoms: O5_21  and  C17_22
REMARK   10  A    between atoms: O6_23  and  C18_24
REMARK                            x       y       z     vdW  Elec       q    Type
REMARK                         _______ _______ _______ _____ _____    ______ ____
ROOT
ATOM      5  C   UNL     1      44.650  19.182  19.041  0.00  0.00    -0.242 A 
ATOM      6  C   UNL     1      45.410  18.913  17.947  0.00  0.00    +0.347 A 
ATOM      7  O   UNL     1      46.112  17.786  17.816  0.00  0.00    -0.202 OA
ATOM      8  C   UNL     1      45.884  16.712  18.600  0.00  0.00    +0.146 A 
ATOM      9  C   UNL     1      45.132  16.844  19.782  0.00  0.00    -0.232 A 
ATOM     10  C   UNL     1      44.904  15.736  20.606  0.00  0.00    +0.184 A 
ATOM     13  C   UNL     1      45.417  14.500  20.244  0.00  0.00    +0.047 A 
ATOM     16  C   UNL     1      46.155  14.367  19.071  0.00  0.00    +0.132 A 
ATOM     19  C   UNL     1      46.388  15.463  18.252  0.00  0.00    +0.062 A 
ATOM     22  C   UNL     1      44.598  18.176  20.119  0.00  0.00    +0.433 A 
ATOM     23  O   UNL     1      44.139  18.430  21.219  0.00  0.00    -0.427 OA
ENDROOT
BRANCH   5   4
ATOM      3  C   UNL     1      44.543  21.615  19.591  0.00  0.00    +0.086 A 
ATOM      4  C   UNL     1      43.898  20.457  19.152  0.00  0.00    -0.030 A 
ATOM     24  C   UNL     1      42.546  20.503  18.816  0.00  0.00    +0.036 A 
ATOM     25  C   UNL     1      41.850  21.689  18.919  0.00  0.00    +0.030 A 
ATOM     26  C   UNL     1      42.488  22.837  19.355  0.00  0.00    +0.010 A 
ATOM     27  C   UNL     1      43.830  22.802  19.696  0.00  0.00    +0.092 A 
BRANCH   3   2
ATOM      1  C   UNL     1      46.183  21.379  21.298  0.00  0.00    +0.232 C 
ATOM      2  O   UNL     1      45.862  21.579  19.920  0.00  0.00    -0.331 OA
ENDBRANCH   3   2
BRANCH  27  28
ATOM     28  O   UNL     1      44.452  23.932  20.130  0.00  0.00    -0.490 OA
ATOM     29  H   UNL     1      44.940  23.819  20.958  0.00  0.00    +0.394 HD
ENDBRANCH  27  28
ENDBRANCH   5   4
BRANCH  10  11
ATOM     11  O   UNL     1      44.187  15.872  21.752  0.00  0.00    -0.458 OA
ATOM     12  H   UNL     1      44.680  16.276  22.478  0.00  0.00    +0.398 HD
ENDBRANCH  10  11
BRANCH  13  14
ATOM     14  O   UNL     1      45.200  13.415  21.038  0.00  0.00    -0.463 OA
ATOM     15  H   UNL     1      45.365  12.568  20.600  0.00  0.00    +0.388 HD
ENDBRANCH  13  14
BRANCH  16  17
ATOM     17  O   UNL     1      46.650  13.150  18.722  0.00  0.00    -0.315 OA
ATOM     18  C   UNL     1      45.887  12.381  17.791  0.00  0.00    +0.246 C 
ENDBRANCH  16  17
BRANCH  19  20
ATOM     20  O   UNL     1      47.112  15.316  17.108  0.00  0.00    -0.314 OA
ATOM     21  C   UNL     1      48.524  15.517  17.203  0.00  0.00    +0.240 C 
ENDBRANCH  19  20
TORSDOF 7
ENDMDL
MODEL 3
REMARK VINA RESULT:      -5.5      3.072      5.002
REMARK  Name = ZINC95486255
REMARK  10 active torsions:
REMARK  status: ('A' for Active; 'I' for Inactive)
REMARK    1  A    between atoms: C1_1  and  O1_2
REMARK    2  A    between atoms: O1_2  and  C2_3
REMARK    3  A    between atoms: C3_4  and  C8_10
REMARK    4  A    between atoms: C7_8  and  O2_9
REMARK    5  A    between atoms: C13_17  and  O8_26
REMARK    6  A    between atoms: C14_18  and  O7_25
REMARK    7  A    between atoms: C15_19  and  O6_23
REMARK    8  A    between atoms: C16_20  and  O5_21
REMARK    9  A    between atoms: O5_21  and  C17_22
REMARK   10  A    between atoms: O6_23  and  C18_24
REMARK                            x       y       z     vdW  Elec       q    Type
REMARK                         _______ _______ _______ _____ _____    ______ ____
ROOT
ATOM      5  C   UNL     1      45.406  19.518  19.602  0.00  0.00    -0.242 A 
ATOM      6  C   UNL     1      46.159  20.516  20.135  0.00  0.00    +0.347 A 
ATOM      7  O   UNL     1      47.493  20.500  20.120  0.00  0.00    -0.202 OA
ATOM      8  C   UNL     1      48.184  19.663  19.319  0.00  0.00    +0.146 A 
ATOM      9  C   UNL     1      47.541  18.567  18.714  0.00  0.00    -0.232 A 
ATOM     10  C   UNL     1      48.255  17.689  17.893  0.00  0.00    +0.184 A 
ATOM     13  C   UNL     1      49.606  17.911  17.668  0.00  0.00    +0.047 A 
ATOM     16  C   UNL     1      50.241  19.000  18.259  0.00  0.00    +0.132 A 
ATOM     19  C   UNL     1      49.538  19.871  19.080  0.00  0.00    +0.062 A 
ATOM     22  C   UNL     1      46.102  18.379  18.974  0.00  0.00    +0.433 A 
ATOM     23  O   UNL     1      45.522  17.346  18.685  0.00  0.00    -0.427 OA
ENDROOT
BRANCH   5   4
ATOM      3  C   UNL     1      43.243  19.017  20.743  0.00  0.00    +0.086 A 
ATOM      4  C   UNL     1      43.924  19.570  19.656  0.00  0.00    -0.030 A 
ATOM     24  C   UNL     1      43.207  20.171  18.623  0.00  0.00    +0.036 A 
ATOM     25  C   UNL     1      41.829  20.219  18.676  0.00  0.00    +0.030 A 
ATOM     26  C   UNL     1      41.154  19.671  19.752  0.00  0.00    +0.010 A 
ATOM     27  C   UNL     1      41.855  19.065  20.782  0.00  0.00    +0.092 A 
BRANCH   3   2
ATOM      1  C   UNL     1      43.956  16.999  21.782  0.00  0.00    +0.232 C 
ATOM      2  O   UNL     1      43.935  18.428  21.755  0.00  0.00    -0.331 OA
ENDBRANCH   3   2
BRANCH  27  28
ATOM     28  O   UNL     1      41.185  18.522  21.835  0.00  0.00    -0.490 OA
ATOM     29  H   UNL     1      40.466  19.076  22.170  0.00  0.00    +0.394 HD
ENDBRANCH  27  28
ENDBRANCH   5   4
BRANCH  10  11
ATOM     11  O   UNL     1      47.632  16.626  17.321  0.00  0.00    -0.458 OA
ATOM     12  H   UNL     1      47.422  15.913  17.940  0.00  0.00    +0.398 HD
ENDBRANCH  10  11
BRANCH  13  14
ATOM     14  O   UNL     1      50.310  17.063  16.870  0.00  0.00    -0.463 OA
ATOM     15  H   UNL     1      49.832  16.256  16.635  0.00  0.00    +0.388 HD
ENDBRANCH  13  14
BRANCH  16  17
ATOM     17  O   UNL     1      51.564  19.212  18.030  0.00  0.00    -0.315 OA
ATOM     18  C   UNL     1      51.906  20.025  16.907  0.00  0.00    +0.246 C 
ENDBRANCH  16  17
BRANCH  19  20
ATOM     20  O   UNL     1      50.175  20.931  19.651  0.00  0.00    -0.314 OA
ATOM     21  C   UNL     1      50.780  20.713  20.927  0.00  0.00    +0.240 C 
ENDBRANCH  19  20
TORSDOF 7
ENDMDL
MODEL 4
REMARK VINA RESULT:      -5.4      3.184      5.438
REMARK  Name = ZINC95486255
REMARK  10 active torsions:
REMARK  status: ('A' for Active; 'I' for Inactive)
REMARK    1  A    between atoms: C1_1  and  O1_2
REMARK    2  A    between atoms: O1_2  and  C2_3
REMARK    3  A    between atoms: C3_4  and  C8_10
REMARK    4  A    between atoms: C7_8  and  O2_9
REMARK    5  A    between atoms: C13_17  and  O8_26
REMARK    6  A    between atoms: C14_18  and  O7_25
REMARK    7  A    between atoms: C15_19  and  O6_23
REMARK    8  A    between atoms: C16_20  and  O5_21
REMARK    9  A    between atoms: O5_21  and  C17_22
REMARK   10  A    between atoms: O6_23  and  C18_24
REMARK                            x       y       z     vdW  Elec       q    Type
REMARK                         _______ _______ _______ _____ _____    ______ ____
ROOT
ATOM      5  C   UNL     1      44.786  19.829  19.242  0.00  0.00    -0.242 A 
ATOM      6  C   UNL     1      45.308  18.955  18.341  0.00  0.00    +0.347 A 
ATOM      7  O   UNL     1      46.616  18.877  18.087  0.00  0.00    -0.202 OA
ATOM      8  C   UNL     1      47.533  19.428  18.908  0.00  0.00    +0.146 A 
ATOM      9  C   UNL     1      47.142  20.370  19.877  0.00  0.00    -0.232 A 
ATOM     10  C   UNL     1      48.092  20.956  20.722  0.00  0.00    +0.184 A 
ATOM     13  C   UNL     1      49.425  20.592  20.606  0.00  0.00    +0.047 A 
ATOM     16  C   UNL     1      49.811  19.654  19.653  0.00  0.00    +0.132 A 
ATOM     19  C   UNL     1      48.875  19.074  18.808  0.00  0.00    +0.062 A 
ATOM     22  C   UNL     1      45.712  20.716  19.971  0.00  0.00    +0.433 A 
ATOM     23  O   UNL     1      45.319  21.675  20.612  0.00  0.00    -0.427 OA
ENDROOT
BRANCH   5   4
ATOM      3  C   UNL     1      42.730  19.056  20.429  0.00  0.00    +0.086 A 
ATOM      4  C   UNL     1      43.323  19.893  19.481  0.00  0.00    -0.030 A 
ATOM     24  C   UNL     1      42.536  20.790  18.762  0.00  0.00    +0.036 A 
ATOM     25  C   UNL     1      41.176  20.849  18.987  0.00  0.00    +0.030 A 
ATOM     26  C   UNL     1      40.588  20.020  19.925  0.00  0.00    +0.010 A 
ATOM     27  C   UNL     1      41.359  19.120  20.642  0.00  0.00    +0.092 A 
BRANCH   3   2
ATOM      1  C   UNL     1      43.919  18.588  22.436  0.00  0.00    +0.232 C 
ATOM      2  O   UNL     1      43.491  18.177  21.135  0.00  0.00    -0.331 OA
ENDBRANCH   3   2
BRANCH  27  28
ATOM     28  O   UNL     1      40.775  18.302  21.559  0.00  0.00    -0.490 OA
ATOM     29  H   UNL     1      39.832  18.473  21.694  0.00  0.00    +0.394 HD
ENDBRANCH  27  28
ENDBRANCH   5   4
BRANCH  10  11
ATOM     11  O   UNL     1      47.710  21.873  21.648  0.00  0.00    -0.458 OA
ATOM     12  H   UNL     1      47.302  22.665  21.273  0.00  0.00    +0.398 HD
ENDBRANCH  10  11
BRANCH  13  14
ATOM     14  O   UNL     1      50.356  21.154  21.424  0.00  0.00    -0.463 OA
ATOM     15  H   UNL     1      51.269  20.932  21.192  0.00  0.00    +0.388 HD
ENDBRANCH  13  14
BRANCH  16  17
ATOM     17  O   UNL     1      51.119  19.301  19.548  0.00  0.00    -0.315 OA
ATOM     18  C   UNL     1      51.929  20.063  18.652  0.00  0.00    +0.246 C 
ENDBRANCH  16  17
BRANCH  19  20
ATOM     20  O   UNL     1      49.269  18.158  17.880  0.00  0.00    -0.314 OA
ATOM     21  C   UNL     1      49.272  16.787  18.284  0.00  0.00    +0.240 C 
ENDBRANCH  19  20
TORSDOF 7
ENDMDL
MODEL 5
REMARK VINA RESULT:      -5.4      1.326      2.073
REMARK  Name = ZINC95486255
REMARK  10 active torsions:
REMARK  status: ('A' for Active; 'I' for Inactive)
REMARK    1  A    between atoms: C1_1  and  O1_2
REMARK    2  A    between atoms: O1_2  and  C2_3
REMARK    3  A    between atoms: C3_4  and  C8_10
REMARK    4  A    between atoms: C7_8  and  O2_9
REMARK    5  A    between atoms: C13_17  and  O8_26
REMARK    6  A    between atoms: C14_18  and  O7_25
REMARK    7  A    between atoms: C15_19  and  O6_23
REMARK    8  A    between atoms: C16_20  and  O5_21
REMARK    9  A    between atoms: O5_21  and  C17_22
REMARK   10  A    between atoms: O6_23  and  C18_24
REMARK                            x       y       z     vdW  Elec       q    Type
REMARK                         _______ _______ _______ _____ _____    ______ ____
ROOT
ATOM      5  C   UNL     1      45.224  18.933  19.858  0.00  0.00    -0.242 A 
ATOM      6  C   UNL     1      44.807  17.981  20.733  0.00  0.00    +0.347 A 
ATOM      7  O   UNL     1      44.772  16.683  20.424  0.00  0.00    -0.202 OA
ATOM      8  C   UNL     1      45.425  16.191  19.351  0.00  0.00    +0.146 A 
ATOM      9  C   UNL     1      45.895  17.058  18.347  0.00  0.00    -0.232 A 
ATOM     10  C   UNL     1      46.561  16.552  17.226  0.00  0.00    +0.184 A 
ATOM     13  C   UNL     1      46.766  15.185  17.114  0.00  0.00    +0.047 A 
ATOM     16  C   UNL     1      46.309  14.327  18.110  0.00  0.00    +0.132 A 
ATOM     19  C   UNL     1      45.643  14.823  19.222  0.00  0.00    +0.062 A 
ATOM     22  C   UNL     1      45.664  18.504  18.516  0.00  0.00    +0.433 A 
ATOM     23  O   UNL     1      45.828  19.297  17.605  0.00  0.00    -0.427 OA
ENDROOT
BRANCH   5   4
ATOM      3  C   UNL     1      46.326  20.908  20.915  0.00  0.00    +0.086 A 
ATOM      4  C   UNL     1      45.230  20.367  20.239  0.00  0.00    -0.030 A 
ATOM     24  C   UNL     1      44.143  21.180  19.921  0.00  0.00    +0.036 A 
ATOM     25  C   UNL     1      44.152  22.513  20.275  0.00  0.00    +0.030 A 
ATOM     26  C   UNL     1      45.237  23.050  20.946  0.00  0.00    +0.010 A 
ATOM     27  C   UNL     1      46.321  22.251  21.272  0.00  0.00    +0.092 A 
BRANCH   3   2
ATOM      1  C   UNL     1      48.504  20.149  20.332  0.00  0.00    +0.232 C 
ATOM      2  O   UNL     1      47.391  20.122  21.228  0.00  0.00    -0.331 OA
ENDBRANCH   3   2
BRANCH  27  28
ATOM     28  O   UNL     1      47.383  22.782  21.937  0.00  0.00    -0.490 OA
ATOM     29  H   UNL     1      48.024  22.124  22.240  0.00  0.00    +0.394 HD
ENDBRANCH  27  28
ENDBRANCH   5   4
BRANCH  10  11
ATOM     11  O   UNL     1      47.002  17.393  16.255  0.00  0.00    -0.458 OA
ATOM     12  H   UNL     1      47.330  18.239  16.586  0.00  0.00    +0.398 HD
ENDBRANCH  10  11
BRANCH  13  14
ATOM     14  O   UNL     1      47.415  14.682  16.028  0.00  0.00    -0.463 OA
ATOM     15  H   UNL     1      48.339  14.448  16.194  0.00  0.00    +0.388 HD
ENDBRANCH  13  14
BRANCH  16  17
ATOM     17  O   UNL     1      46.518  12.989  17.994  0.00  0.00    -0.315 OA
ATOM     18  C   UNL     1      45.554  12.243  17.249  0.00  0.00    +0.246 C 
ENDBRANCH  16  17
BRANCH  19  20
ATOM     20  O   UNL     1      45.202  13.970  20.188  0.00  0.00    -0.314 OA
ATOM     21  C   UNL     1      46.098  13.693  21.267  0.00  0.00    +0.240 C 
ENDBRANCH  19  20
TORSDOF 7
ENDMDL
MODEL 6
REMARK VINA RESULT:      -5.4      5.007      6.153
REMARK  Name = ZINC95486255
REMARK  10 active torsions:
REMARK  status: ('A' for Active; 'I' for Inactive)
REMARK    1  A    between atoms: C1_1  and  O1_2
REMARK    2  A    between atoms: O1_2  and  C2_3
REMARK    3  A    between atoms: C3_4  and  C8_10
REMARK    4  A    between atoms: C7_8  and  O2_9
REMARK    5  A    between atoms: C13_17  and  O8_26
REMARK    6  A    between atoms: C14_18  and  O7_25
REMARK    7  A    between atoms: C15_19  and  O6_23
REMARK    8  A    between atoms: C16_20  and  O5_21
REMARK    9  A    between atoms: O5_21  and  C17_22
REMARK   10  A    between atoms: O6_23  and  C18_24
REMARK                            x       y       z     vdW  Elec       q    Type
REMARK                         _______ _______ _______ _____ _____    ______ ____
ROOT
ATOM      5  C   UNL     1      50.683  17.089  17.176  0.00  0.00    -0.242 A 
ATOM      6  C   UNL     1      51.585  16.093  17.373  0.00  0.00    +0.347 A 
ATOM      7  O   UNL     1      51.224  14.824  17.576  0.00  0.00    -0.202 OA
ATOM      8  C   UNL     1      49.979  14.386  17.298  0.00  0.00    +0.146 A 
ATOM      9  C   UNL     1      48.933  15.306  17.093  0.00  0.00    -0.232 A 
ATOM     10  C   UNL     1      47.637  14.857  16.819  0.00  0.00    +0.184 A 
ATOM     13  C   UNL     1      47.389  13.495  16.739  0.00  0.00    +0.047 A 
ATOM     16  C   UNL     1      48.424  12.585  16.933  0.00  0.00    +0.132 A 
ATOM     19  C   UNL     1      49.711  13.024  17.212  0.00  0.00    +0.062 A 
ATOM     22  C   UNL     1      49.248  16.743  17.177  0.00  0.00    +0.433 A 
ATOM     23  O   UNL     1      48.378  17.594  17.241  0.00  0.00    -0.427 OA
ENDROOT
BRANCH   5   4
ATOM      3  C   UNL     1      51.208  19.366  18.056  0.00  0.00    +0.086 A 
ATOM      4  C   UNL     1      51.128  18.490  16.971  0.00  0.00    -0.030 A 
ATOM     24  C   UNL     1      51.469  18.936  15.695  0.00  0.00    +0.036 A 
ATOM     25  C   UNL     1      51.884  20.238  15.508  0.00  0.00    +0.030 A 
ATOM     26  C   UNL     1      51.963  21.107  16.582  0.00  0.00    +0.010 A 
ATOM     27  C   UNL     1      51.621  20.677  17.854  0.00  0.00    +0.092 A 
BRANCH   3   2
ATOM      1  C   UNL     1      51.949  18.527  20.155  0.00  0.00    +0.232 C 
ATOM      2  O   UNL     1      50.877  18.938  19.304  0.00  0.00    -0.331 OA
ENDBRANCH   3   2
BRANCH  27  28
ATOM     28  O   UNL     1      51.694  21.536  18.906  0.00  0.00    -0.490 OA
ATOM     29  H   UNL     1      52.085  21.150  19.702  0.00  0.00    +0.394 HD
ENDBRANCH  27  28
ENDBRANCH   5   4
BRANCH  10  11
ATOM     11  O   UNL     1      46.629  15.749  16.633  0.00  0.00    -0.458 OA
ATOM     12  H   UNL     1      46.917  16.672  16.627  0.00  0.00    +0.398 HD
ENDBRANCH  10  11
BRANCH  13  14
ATOM     14  O   UNL     1      46.131  13.048  16.470  0.00  0.00    -0.463 OA
ATOM     15  H   UNL     1      45.467  13.335  17.113  0.00  0.00    +0.388 HD
ENDBRANCH  13  14
BRANCH  16  17
ATOM     17  O   UNL     1      48.172  11.252  16.849  0.00  0.00    -0.315 OA
ATOM     18  C   UNL     1      48.175  10.672  15.544  0.00  0.00    +0.246 C 
ENDBRANCH  16  17
BRANCH  19  20
ATOM     20  O   UNL     1      50.713  12.120  17.400  0.00  0.00    -0.314 OA
ATOM     21  C   UNL     1      51.568  11.860  16.285  0.00  0.00    +0.240 C 
ENDBRANCH  19  20
TORSDOF 7
ENDMDL
MODEL 7
REMARK VINA RESULT:      -5.0      2.751      4.996
REMARK  Name = ZINC95486255
REMARK  10 active torsions:
REMARK  status: ('A' for Active; 'I' for Inactive)
REMARK    1  A    between atoms: C1_1  and  O1_2
REMARK    2  A    between atoms: O1_2  and  C2_3
REMARK    3  A    between atoms: C3_4  and  C8_10
REMARK    4  A    between atoms: C7_8  and  O2_9
REMARK    5  A    between atoms: C13_17  and  O8_26
REMARK    6  A    between atoms: C14_18  and  O7_25
REMARK    7  A    between atoms: C15_19  and  O6_23
REMARK    8  A    between atoms: C16_20  and  O5_21
REMARK    9  A    between atoms: O5_21  and  C17_22
REMARK   10  A    between atoms: O6_23  and  C18_24
REMARK                            x       y       z     vdW  Elec       q    Type
REMARK                         _______ _______ _______ _____ _____    ______ ____
ROOT
ATOM      5  C   UNL     1      46.696  14.902  19.165  0.00  0.00    -0.242 A 
ATOM      6  C   UNL     1      48.020  15.208  19.154  0.00  0.00    +0.347 A 
ATOM      7  O   UNL     1      48.910  14.534  18.422  0.00  0.00    -0.202 OA
ATOM      8  C   UNL     1      48.531  13.713  17.421  0.00  0.00    +0.146 A 
ATOM      9  C   UNL     1      47.192  13.291  17.319  0.00  0.00    -0.232 A 
ATOM     10  C   UNL     1      46.796  12.429  16.290  0.00  0.00    +0.184 A 
ATOM     13  C   UNL     1      47.732  12.000  15.362  0.00  0.00    +0.047 A 
ATOM     16  C   UNL     1      49.054  12.424  15.457  0.00  0.00    +0.132 A 
ATOM     19  C   UNL     1      49.454  13.274  16.478  0.00  0.00    +0.062 A 
ATOM     22  C   UNL     1      46.231  13.783  18.323  0.00  0.00    +0.433 A 
ATOM     23  O   UNL     1      45.121  13.297  18.449  0.00  0.00    -0.427 OA
ENDROOT
BRANCH   5   4
ATOM      3  C   UNL     1      45.190  16.859  19.532  0.00  0.00    +0.086 A 
ATOM      4  C   UNL     1      45.745  15.668  20.007  0.00  0.00    -0.030 A 
ATOM     24  C   UNL     1      45.400  15.202  21.274  0.00  0.00    +0.036 A 
ATOM     25  C   UNL     1      44.513  15.915  22.055  0.00  0.00    +0.030 A 
ATOM     26  C   UNL     1      43.964  17.095  21.585  0.00  0.00    +0.010 A 
ATOM     27  C   UNL     1      44.304  17.572  20.329  0.00  0.00    +0.092 A 
BRANCH   3   2
ATOM      1  C   UNL     1      46.471  18.388  18.235  0.00  0.00    +0.232 C 
ATOM      2  O   UNL     1      45.521  17.321  18.296  0.00  0.00    -0.331 OA
ENDBRANCH   3   2
BRANCH  27  28
ATOM     28  O   UNL     1      43.765  18.736  19.874  0.00  0.00    -0.490 OA
ATOM     29  H   UNL     1      42.853  18.652  19.563  0.00  0.00    +0.394 HD
ENDBRANCH  27  28
ENDBRANCH   5   4
BRANCH  10  11
ATOM     11  O   UNL     1      45.505  12.015  16.204  0.00  0.00    -0.458 OA
ATOM     12  H   UNL     1      45.021  12.390  15.455  0.00  0.00    +0.398 HD
ENDBRANCH  10  11
BRANCH  13  14
ATOM     14  O   UNL     1      47.356  11.163  14.356  0.00  0.00    -0.463 OA
ATOM     15  H   UNL     1      47.442  10.224  14.573  0.00  0.00    +0.388 HD
ENDBRANCH  13  14
BRANCH  16  17
ATOM     17  O   UNL     1      49.964  12.001  14.540  0.00  0.00    -0.315 OA
ATOM     18  C   UNL     1      50.108  12.789  13.357  0.00  0.00    +0.246 C 
ENDBRANCH  16  17
BRANCH  19  20
ATOM     20  O   UNL     1      50.752  13.679  16.558  0.00  0.00    -0.314 OA
ATOM     21  C   UNL     1      51.644  12.853  17.309  0.00  0.00    +0.240 C 
ENDBRANCH  19  20
TORSDOF 7
ENDMDL
MODEL 8
REMARK VINA RESULT:      -4.9      2.114      7.281
REMARK  Name = ZINC95486255
REMARK  10 active torsions:
REMARK  status: ('A' for Active; 'I' for Inactive)
REMARK    1  A    between atoms: C1_1  and  O1_2
REMARK    2  A    between atoms: O1_2  and  C2_3
REMARK    3  A    between atoms: C3_4  and  C8_10
REMARK    4  A    between atoms: C7_8  and  O2_9
REMARK    5  A    between atoms: C13_17  and  O8_26
REMARK    6  A    between atoms: C14_18  and  O7_25
REMARK    7  A    between atoms: C15_19  and  O6_23
REMARK    8  A    between atoms: C16_20  and  O5_21
REMARK    9  A    between atoms: O5_21  and  C17_22
REMARK   10  A    between atoms: O6_23  and  C18_24
REMARK                            x       y       z     vdW  Elec       q    Type
REMARK                         _______ _______ _______ _____ _____    ______ ____
ROOT
ATOM      5  C   UNL     1      47.514  15.936  17.923  0.00  0.00    -0.242 A 
ATOM      6  C   UNL     1      47.194  17.104  17.308  0.00  0.00    +0.347 A 
ATOM      7  O   UNL     1      46.122  17.825  17.642  0.00  0.00    -0.202 OA
ATOM      8  C   UNL     1      45.457  17.616  18.797  0.00  0.00    +0.146 A 
ATOM      9  C   UNL     1      45.668  16.435  19.533  0.00  0.00    -0.232 A 
ATOM     10  C   UNL     1      44.971  16.207  20.724  0.00  0.00    +0.184 A 
ATOM     13  C   UNL     1      44.074  17.160  21.184  0.00  0.00    +0.047 A 
ATOM     16  C   UNL     1      43.871  18.332  20.460  0.00  0.00    +0.132 A 
ATOM     19  C   UNL     1      44.555  18.561  19.275  0.00  0.00    +0.062 A 
ATOM     22  C   UNL     1      46.639  15.457  19.010  0.00  0.00    +0.433 A 
ATOM     23  O   UNL     1      46.715  14.323  19.451  0.00  0.00    -0.427 OA
ENDROOT
BRANCH   5   4
ATOM      3  C   UNL     1      48.591  14.158  16.540  0.00  0.00    +0.086 A 
ATOM      4  C   UNL     1      48.708  15.158  17.509  0.00  0.00    -0.030 A 
ATOM     24  C   UNL     1      49.950  15.424  18.083  0.00  0.00    +0.036 A 
ATOM     25  C   UNL     1      51.059  14.701  17.695  0.00  0.00    +0.030 A 
ATOM     26  C   UNL     1      50.944  13.710  16.736  0.00  0.00    +0.010 A 
ATOM     27  C   UNL     1      49.714  13.433  16.162  0.00  0.00    +0.092 A 
BRANCH   3   2
ATOM      1  C   UNL     1      46.694  12.728  16.433  0.00  0.00    +0.232 C 
ATOM      2  O   UNL     1      47.383  13.893  15.975  0.00  0.00    -0.331 OA
ENDBRANCH   3   2
BRANCH  27  28
ATOM     28  O   UNL     1      49.605  12.453  15.224  0.00  0.00    -0.490 OA
ATOM     29  H   UNL     1      49.905  12.717  14.343  0.00  0.00    +0.394 HD
ENDBRANCH  27  28
ENDBRANCH   5   4
BRANCH  10  11
ATOM     11  O   UNL     1      45.170  15.060  21.424  0.00  0.00    -0.458 OA
ATOM     12  H   UNL     1      46.036  14.656  21.280  0.00  0.00    +0.398 HD
ENDBRANCH  10  11
BRANCH  13  14
ATOM     14  O   UNL     1      43.392  16.949  22.342  0.00  0.00    -0.463 OA
ATOM     15  H   UNL     1      43.248  16.015  22.549  0.00  0.00    +0.388 HD
ENDBRANCH  13  14
BRANCH  16  17
ATOM     17  O   UNL     1      42.994  19.263  20.920  0.00  0.00    -0.315 OA
ATOM     18  C   UNL     1      41.647  19.173  20.452  0.00  0.00    +0.246 C 
ENDBRANCH  16  17
BRANCH  19  20
ATOM     20  O   UNL     1      44.345  19.713  18.579  0.00  0.00    -0.314 OA
ATOM     21  C   UNL     1      45.204  20.816  18.877  0.00  0.00    +0.240 C 
ENDBRANCH  19  20
TORSDOF 7
ENDMDL
MODEL 9
REMARK VINA RESULT:      -4.8      3.824      6.220
REMARK  Name = ZINC95486255
REMARK  10 active torsions:
REMARK  status: ('A' for Active; 'I' for Inactive)
REMARK    1  A    between atoms: C1_1  and  O1_2
REMARK    2  A    between atoms: O1_2  and  C2_3
REMARK    3  A    between atoms: C3_4  and  C8_10
REMARK    4  A    between atoms: C7_8  and  O2_9
REMARK    5  A    between atoms: C13_17  and  O8_26
REMARK    6  A    between atoms: C14_18  and  O7_25
REMARK    7  A    between atoms: C15_19  and  O6_23
REMARK    8  A    between atoms: C16_20  and  O5_21
REMARK    9  A    between atoms: O5_21  and  C17_22
REMARK   10  A    between atoms: O6_23  and  C18_24
REMARK                            x       y       z     vdW  Elec       q    Type
REMARK                         _______ _______ _______ _____ _____    ______ ____
ROOT
ATOM      5  C   UNL     1      48.623  20.117  19.161  0.00  0.00    -0.242 A 
ATOM      6  C   UNL     1      47.713  21.032  18.736  0.00  0.00    +0.347 A 
ATOM      7  O   UNL     1      46.406  20.772  18.670  0.00  0.00    -0.202 OA
ATOM      8  C   UNL     1      45.860  19.711  19.300  0.00  0.00    +0.146 A 
ATOM      9  C   UNL     1      46.680  18.670  19.775  0.00  0.00    -0.232 A 
ATOM     10  C   UNL     1      46.118  17.560  20.417  0.00  0.00    +0.184 A 
ATOM     13  C   UNL     1      44.744  17.497  20.592  0.00  0.00    +0.047 A 
ATOM     16  C   UNL     1      43.933  18.530  20.129  0.00  0.00    +0.132 A 
ATOM     19  C   UNL     1      44.484  19.631  19.487  0.00  0.00    +0.062 A 
ATOM     22  C   UNL     1      48.136  18.788  19.575  0.00  0.00    +0.433 A 
ATOM     23  O   UNL     1      48.890  17.846  19.744  0.00  0.00    -0.427 OA
ENDROOT
BRANCH   5   4
ATOM      3  C   UNL     1      50.661  20.862  20.397  0.00  0.00    +0.086 A 
ATOM      4  C   UNL     1      50.070  20.444  19.202  0.00  0.00    -0.030 A 
ATOM     24  C   UNL     1      50.845  20.334  18.049  0.00  0.00    +0.036 A 
ATOM     25  C   UNL     1      52.190  20.638  18.089  0.00  0.00    +0.030 A 
ATOM     26  C   UNL     1      52.776  21.052  19.272  0.00  0.00    +0.010 A 
ATOM     27  C   UNL     1      52.015  21.171  20.424  0.00  0.00    +0.092 A 
BRANCH   3   2
ATOM      1  C   UNL     1      50.008  19.907  22.475  0.00  0.00    +0.232 C 
ATOM      2  O   UNL     1      49.912  20.972  21.527  0.00  0.00    -0.331 OA
ENDBRANCH   3   2
BRANCH  27  28
ATOM     28  O   UNL     1      52.595  21.585  21.583  0.00  0.00    -0.490 OA
ATOM     29  H   UNL     1      52.392  22.501  21.818  0.00  0.00    +0.394 HD
ENDBRANCH  27  28
ENDBRANCH   5   4
BRANCH  10  11
ATOM     11  O   UNL     1      46.913  16.553  20.863  0.00  0.00    -0.458 OA
ATOM     12  H   UNL     1      46.891  16.431  21.821  0.00  0.00    +0.398 HD
ENDBRANCH  10  11
BRANCH  13  14
ATOM     14  O   UNL     1      44.188  16.423  21.216  0.00  0.00    -0.463 OA
ATOM     15  H   UNL     1      43.974  15.690  20.622  0.00  0.00    +0.388 HD
ENDBRANCH  13  14
BRANCH  16  17
ATOM     17  O   UNL     1      42.588  18.461  20.309  0.00  0.00    -0.315 OA
ATOM     18  C   UNL     1      42.078  18.898  21.571  0.00  0.00    +0.246 C 
ENDBRANCH  16  17
BRANCH  19  20
ATOM     20  O   UNL     1      43.677  20.633  19.041  0.00  0.00    -0.314 OA
ATOM     21  C   UNL     1      43.639  21.830  19.820  0.00  0.00    +0.240 C 
ENDBRANCH  19  20
TORSDOF 7
ENDMDL
