MODEL 1
REMARK VINA RESULT:      -6.1      0.000      0.000
REMARK  Name = ZINC95486121
REMARK  7 active torsions:
REMARK  status: ('A' for Active; 'I' for Inactive)
REMARK    1  A    between atoms: C1_1  and  C2_2
REMARK    2  A    between atoms: C5_5  and  O3_27
REMARK    3  A    between atoms: C6_7  and  C19_25
REMARK    4  A    between atoms: C6_7  and  C20_26
REMARK    5  A    between atoms: C16_20  and  C18_22
REMARK    6  A    between atoms: C16_20  and  O2_24
REMARK    7  A    between atoms: C18_22  and  O1_23
REMARK                            x       y       z     vdW  Elec       q    Type
REMARK                         _______ _______ _______ _____ _____    ______ ____
ROOT
ATOM      1  C   UNL     1      57.881  33.297   5.586  0.00  0.00    +0.010 C 
ATOM      2  C   UNL     1      56.684  33.318   4.603  0.00  0.00    -0.030 C 
ATOM      3  C   UNL     1      56.677  34.665   3.889  0.00  0.00    +0.031 C 
ATOM      4  C   UNL     1      57.955  34.834   3.067  0.00  0.00    -0.023 C 
ATOM      5  C   UNL     1      58.026  33.744   2.006  0.00  0.00    +0.165 C 
ATOM      8  C   UNL     1      57.969  32.348   2.616  0.00  0.00    -0.042 C 
ATOM      9  C   UNL     1      57.816  31.350   1.446  0.00  0.00    +0.025 C 
ATOM     10  C   UNL     1      59.331  32.014   3.249  0.00  0.00    +0.027 C 
ATOM     11  C   UNL     1      55.453  33.175   5.489  0.00  0.00    -0.005 C 
ATOM     12  C   UNL     1      55.204  34.385   6.374  0.00  0.00    +0.018 C 
ATOM     13  C   UNL     1      54.226  35.401   5.808  0.00  0.00    +0.023 C 
ATOM     14  C   UNL     1      52.997  34.743   5.178  0.00  0.00    +0.005 C 
ATOM     15  C   UNL     1      52.392  33.710   6.152  0.00  0.00    +0.144 C 
ATOM     21  C   UNL     1      53.143  32.387   5.894  0.00  0.00    +0.008 C 
ATOM     22  C   UNL     1      53.532  33.866   4.009  0.00  0.00    +0.031 C 
ATOM     23  C   UNL     1      54.185  32.716   4.801  0.00  0.00    -0.044 C 
ATOM     24  C   UNL     1      54.433  31.523   3.901  0.00  0.00    +0.010 C 
ATOM     25  C   UNL     1      55.511  31.921   2.877  0.00  0.00    +0.027 C 
ATOM     26  C   UNL     1      56.832  32.171   3.608  0.00  0.00    +0.013 C 
ENDROOT
BRANCH   5   6
ATOM      6  O   UNL     1      56.955  33.907   1.072  0.00  0.00    -0.559 OA
ATOM      7  H   UNL     1      56.117  33.522   1.362  0.00  0.00    +0.372 HD
ENDBRANCH   5   6
BRANCH  15  16
ATOM     16  O   UNL     1      52.559  34.129   7.505  0.00  0.00    -0.549 OA
ATOM     17  H   UNL     1      52.309  33.460   8.157  0.00  0.00    +0.379 HD
ENDBRANCH  15  16
BRANCH  15  18
ATOM     18  C   UNL     1      50.899  33.524   5.852  0.00  0.00    +0.153 C 
BRANCH  18  19
ATOM     19  O   UNL     1      50.167  33.499   7.079  0.00  0.00    -0.574 OA
ATOM     20  H   UNL     1      49.307  33.064   7.014  0.00  0.00    +0.383 HD
ENDBRANCH  18  19
ENDBRANCH  15  18
TORSDOF 4
ENDMDL
MODEL 2
REMARK VINA RESULT:      -6.0     20.812     23.468
REMARK  Name = ZINC95486121
REMARK  7 active torsions:
REMARK  status: ('A' for Active; 'I' for Inactive)
REMARK    1  A    between atoms: C1_1  and  C2_2
REMARK    2  A    between atoms: C5_5  and  O3_27
REMARK    3  A    between atoms: C6_7  and  C19_25
REMARK    4  A    between atoms: C6_7  and  C20_26
REMARK    5  A    between atoms: C16_20  and  C18_22
REMARK    6  A    between atoms: C16_20  and  O2_24
REMARK    7  A    between atoms: C18_22  and  O1_23
REMARK                            x       y       z     vdW  Elec       q    Type
REMARK                         _______ _______ _______ _____ _____    ______ ____
ROOT
ATOM      1  C   UNL     1      44.386  17.699  22.192  0.00  0.00    +0.010 C 
ATOM      2  C   UNL     1      45.168  18.422  21.067  0.00  0.00    -0.030 C 
ATOM      3  C   UNL     1      46.611  18.596  21.527  0.00  0.00    +0.031 C 
ATOM      4  C   UNL     1      47.266  17.231  21.744  0.00  0.00    -0.023 C 
ATOM      5  C   UNL     1      47.285  16.461  20.430  0.00  0.00    +0.165 C 
ATOM      8  C   UNL     1      45.887  16.292  19.848  0.00  0.00    -0.042 C 
ATOM      9  C   UNL     1      46.058  15.710  18.426  0.00  0.00    +0.025 C 
ATOM     10  C   UNL     1      45.136  15.204  20.634  0.00  0.00    +0.027 C 
ATOM     11  C   UNL     1      44.483  19.775  20.927  0.00  0.00    -0.005 C 
ATOM     12  C   UNL     1      44.683  20.679  22.133  0.00  0.00    +0.018 C 
ATOM     13  C   UNL     1      45.836  21.661  22.012  0.00  0.00    +0.023 C 
ATOM     14  C   UNL     1      45.898  22.325  20.635  0.00  0.00    +0.005 C 
ATOM     15  C   UNL     1      44.509  22.880  20.251  0.00  0.00    +0.144 C 
ATOM     21  C   UNL     1      43.754  21.715  19.577  0.00  0.00    +0.008 C 
ATOM     22  C   UNL     1      46.120  21.173  19.613  0.00  0.00    +0.031 C 
ATOM     23  C   UNL     1      44.726  20.515  19.628  0.00  0.00    -0.044 C 
ATOM     24  C   UNL     1      44.549  19.612  18.425  0.00  0.00    +0.010 C 
ATOM     25  C   UNL     1      45.516  18.425  18.580  0.00  0.00    +0.027 C 
ATOM     26  C   UNL     1      45.097  17.589  19.791  0.00  0.00    +0.013 C 
ENDROOT
BRANCH   5   6
ATOM      6  O   UNL     1      48.124  17.134  19.487  0.00  0.00    -0.559 OA
ATOM      7  H   UNL     1      48.154  16.714  18.617  0.00  0.00    +0.372 HD
ENDBRANCH   5   6
BRANCH  15  16
ATOM     16  O   UNL     1      43.807  23.333  21.407  0.00  0.00    -0.549 OA
ATOM     17  H   UNL     1      42.869  23.095  21.416  0.00  0.00    +0.379 HD
ENDBRANCH  15  16
BRANCH  15  18
ATOM     18  C   UNL     1      44.668  24.038  19.259  0.00  0.00    +0.153 C 
BRANCH  18  19
ATOM     19  O   UNL     1      43.381  24.432  18.778  0.00  0.00    -0.574 OA
ATOM     20  H   UNL     1      43.371  24.689  17.847  0.00  0.00    +0.383 HD
ENDBRANCH  18  19
ENDBRANCH  15  18
TORSDOF 4
ENDMDL
MODEL 3
REMARK VINA RESULT:      -5.6     20.932     22.358
REMARK  Name = ZINC95486121
REMARK  7 active torsions:
REMARK  status: ('A' for Active; 'I' for Inactive)
REMARK    1  A    between atoms: C1_1  and  C2_2
REMARK    2  A    between atoms: C5_5  and  O3_27
REMARK    3  A    between atoms: C6_7  and  C19_25
REMARK    4  A    between atoms: C6_7  and  C20_26
REMARK    5  A    between atoms: C16_20  and  C18_22
REMARK    6  A    between atoms: C16_20  and  O2_24
REMARK    7  A    between atoms: C18_22  and  O1_23
REMARK                            x       y       z     vdW  Elec       q    Type
REMARK                         _______ _______ _______ _____ _____    ______ ____
ROOT
ATOM      1  C   UNL     1      47.109  17.298  17.001  0.00  0.00    +0.010 C 
ATOM      2  C   UNL     1      47.368  18.055  18.327  0.00  0.00    -0.030 C 
ATOM      3  C   UNL     1      47.009  17.127  19.482  0.00  0.00    +0.031 C 
ATOM      4  C   UNL     1      47.911  15.892  19.470  0.00  0.00    -0.023 C 
ATOM      5  C   UNL     1      49.362  16.320  19.648  0.00  0.00    +0.165 C 
ATOM      8  C   UNL     1      49.801  17.309  18.574  0.00  0.00    -0.042 C 
ATOM      9  C   UNL     1      51.193  17.837  18.991  0.00  0.00    +0.025 C 
ATOM     10  C   UNL     1      50.040  16.555  17.255  0.00  0.00    +0.027 C 
ATOM     11  C   UNL     1      46.421  19.247  18.283  0.00  0.00    -0.005 C 
ATOM     12  C   UNL     1      44.955  18.857  18.381  0.00  0.00    +0.018 C 
ATOM     13  C   UNL     1      44.371  18.910  19.782  0.00  0.00    +0.023 C 
ATOM     14  C   UNL     1      44.803  20.162  20.549  0.00  0.00    +0.005 C 
ATOM     15  C   UNL     1      44.574  21.419  19.685  0.00  0.00    +0.144 C 
ATOM     21  C   UNL     1      45.847  21.590  18.830  0.00  0.00    +0.008 C 
ATOM     22  C   UNL     1      46.353  20.081  20.662  0.00  0.00    +0.031 C 
ATOM     23  C   UNL     1      46.755  20.399  19.208  0.00  0.00    -0.044 C 
ATOM     24  C   UNL     1      48.220  20.777  19.130  0.00  0.00    +0.010 C 
ATOM     25  C   UNL     1      49.048  19.526  19.475  0.00  0.00    +0.027 C 
ATOM     26  C   UNL     1      48.835  18.467  18.391  0.00  0.00    +0.013 C 
ENDROOT
BRANCH   5   6
ATOM      6  O   UNL     1      49.539  16.901  20.943  0.00  0.00    -0.559 OA
ATOM      7  H   UNL     1      49.697  16.256  21.645  0.00  0.00    +0.372 HD
ENDBRANCH   5   6
BRANCH  15  16
ATOM     16  O   UNL     1      43.426  21.261  18.852  0.00  0.00    -0.549 OA
ATOM     17  H   UNL     1      43.480  21.737  18.012  0.00  0.00    +0.379 HD
ENDBRANCH  15  16
BRANCH  15  18
ATOM     18  C   UNL     1      44.387  22.645  20.588  0.00  0.00    +0.153 C 
BRANCH  18  19
ATOM     19  O   UNL     1      43.213  23.356  20.189  0.00  0.00    -0.574 OA
ATOM     20  H   UNL     1      42.415  23.096  20.668  0.00  0.00    +0.383 HD
ENDBRANCH  18  19
ENDBRANCH  15  18
TORSDOF 4
ENDMDL
MODEL 4
REMARK VINA RESULT:      -5.6     19.848     22.359
REMARK  Name = ZINC95486121
REMARK  7 active torsions:
REMARK  status: ('A' for Active; 'I' for Inactive)
REMARK    1  A    between atoms: C1_1  and  C2_2
REMARK    2  A    between atoms: C5_5  and  O3_27
REMARK    3  A    between atoms: C6_7  and  C19_25
REMARK    4  A    between atoms: C6_7  and  C20_26
REMARK    5  A    between atoms: C16_20  and  C18_22
REMARK    6  A    between atoms: C16_20  and  O2_24
REMARK    7  A    between atoms: C18_22  and  O1_23
REMARK                            x       y       z     vdW  Elec       q    Type
REMARK                         _______ _______ _______ _____ _____    ______ ____
ROOT
ATOM      1  C   UNL     1      46.263  17.823  20.524  0.00  0.00    +0.010 C 
ATOM      2  C   UNL     1      46.883  19.171  20.077  0.00  0.00    -0.030 C 
ATOM      3  C   UNL     1      46.533  19.392  18.610  0.00  0.00    +0.031 C 
ATOM      4  C   UNL     1      45.018  19.499  18.438  0.00  0.00    -0.023 C 
ATOM      5  C   UNL     1      44.498  20.694  19.227  0.00  0.00    +0.165 C 
ATOM      8  C   UNL     1      44.859  20.601  20.706  0.00  0.00    -0.042 C 
ATOM      9  C   UNL     1      44.488  21.959  21.346  0.00  0.00    +0.025 C 
ATOM     10  C   UNL     1      43.941  19.574  21.390  0.00  0.00    +0.027 C 
ATOM     11  C   UNL     1      48.385  18.981  20.248  0.00  0.00    -0.005 C 
ATOM     12  C   UNL     1      48.980  17.979  19.272  0.00  0.00    +0.018 C 
ATOM     13  C   UNL     1      49.570  18.587  18.010  0.00  0.00    +0.023 C 
ATOM     14  C   UNL     1      50.394  19.844  18.296  0.00  0.00    +0.005 C 
ATOM     15  C   UNL     1      51.400  19.570  19.435  0.00  0.00    +0.144 C 
ATOM     21  C   UNL     1      50.645  19.853  20.750  0.00  0.00    +0.008 C 
ATOM     22  C   UNL     1      49.408  20.869  18.925  0.00  0.00    +0.031 C 
ATOM     23  C   UNL     1      49.213  20.247  20.322  0.00  0.00    -0.044 C 
ATOM     24  C   UNL     1      48.611  21.257  21.277  0.00  0.00    +0.010 C 
ATOM     25  C   UNL     1      47.177  21.555  20.805  0.00  0.00    +0.027 C 
ATOM     26  C   UNL     1      46.327  20.292  20.949  0.00  0.00    +0.013 C 
ENDROOT
BRANCH   5   6
ATOM      6  O   UNL     1      45.025  21.904  18.676  0.00  0.00    -0.559 OA
ATOM      7  H   UNL     1      44.350  22.550  18.426  0.00  0.00    +0.372 HD
ENDBRANCH   5   6
BRANCH  15  16
ATOM     16  O   UNL     1      51.856  18.219  19.396  0.00  0.00    -0.549 OA
ATOM     17  H   UNL     1      52.429  18.019  18.644  0.00  0.00    +0.379 HD
ENDBRANCH  15  16
BRANCH  15  18
ATOM     18  C   UNL     1      52.597  20.520  19.311  0.00  0.00    +0.153 C 
BRANCH  18  19
ATOM     19  O   UNL     1      52.632  21.073  17.994  0.00  0.00    -0.574 OA
ATOM     20  H   UNL     1      52.443  20.434  17.294  0.00  0.00    +0.383 HD
ENDBRANCH  18  19
ENDBRANCH  15  18
TORSDOF 4
ENDMDL
MODEL 5
REMARK VINA RESULT:      -5.5     20.004     22.039
REMARK  Name = ZINC95486121
REMARK  7 active torsions:
REMARK  status: ('A' for Active; 'I' for Inactive)
REMARK    1  A    between atoms: C1_1  and  C2_2
REMARK    2  A    between atoms: C5_5  and  O3_27
REMARK    3  A    between atoms: C6_7  and  C19_25
REMARK    4  A    between atoms: C6_7  and  C20_26
REMARK    5  A    between atoms: C16_20  and  C18_22
REMARK    6  A    between atoms: C16_20  and  O2_24
REMARK    7  A    between atoms: C18_22  and  O1_23
REMARK                            x       y       z     vdW  Elec       q    Type
REMARK                         _______ _______ _______ _____ _____    ______ ____
ROOT
ATOM      1  C   UNL     1      49.316  20.776  21.410  0.00  0.00    +0.010 C 
ATOM      2  C   UNL     1      48.554  20.006  20.303  0.00  0.00    -0.030 C 
ATOM      3  C   UNL     1      48.809  20.707  18.974  0.00  0.00    +0.031 C 
ATOM      4  C   UNL     1      50.298  20.663  18.628  0.00  0.00    -0.023 C 
ATOM      5  C   UNL     1      50.744  19.214  18.485  0.00  0.00    +0.165 C 
ATOM      8  C   UNL     1      50.468  18.404  19.746  0.00  0.00    -0.042 C 
ATOM      9  C   UNL     1      50.745  16.923  19.400  0.00  0.00    +0.025 C 
ATOM     10  C   UNL     1      51.509  18.763  20.819  0.00  0.00    +0.027 C 
ATOM     11  C   UNL     1      47.087  20.116  20.695  0.00  0.00    -0.005 C 
ATOM     12  C   UNL     1      46.537  21.529  20.582  0.00  0.00    +0.018 C 
ATOM     13  C   UNL     1      45.832  21.839  19.273  0.00  0.00    +0.023 C 
ATOM     14  C   UNL     1      44.912  20.704  18.820  0.00  0.00    +0.005 C 
ATOM     15  C   UNL     1      43.994  20.271  19.983  0.00  0.00    +0.144 C 
ATOM     21  C   UNL     1      44.785  19.215  20.783  0.00  0.00    +0.008 C 
ATOM     22  C   UNL     1      45.830  19.467  18.607  0.00  0.00    +0.031 C 
ATOM     23  C   UNL     1      46.151  19.103  20.070  0.00  0.00    -0.044 C 
ATOM     24  C   UNL     1      46.705  17.695  20.161  0.00  0.00    +0.010 C 
ATOM     25  C   UNL     1      48.080  17.685  19.471  0.00  0.00    +0.027 C 
ATOM     26  C   UNL     1      49.048  18.563  20.265  0.00  0.00    +0.013 C 
ENDROOT
BRANCH   5   6
ATOM      6  O   UNL     1      50.082  18.612  17.369  0.00  0.00    -0.559 OA
ATOM      7  H   UNL     1      49.974  19.202  16.610  0.00  0.00    +0.372 HD
ENDBRANCH   5   6
BRANCH  15  16
ATOM     16  O   UNL     1      43.662  21.385  20.811  0.00  0.00    -0.549 OA
ATOM     17  H   UNL     1      44.169  22.185  20.615  0.00  0.00    +0.379 HD
ENDBRANCH  15  16
BRANCH  15  18
ATOM     18  C   UNL     1      42.709  19.645  19.427  0.00  0.00    +0.153 C 
BRANCH  18  19
ATOM     19  O   UNL     1      42.319  20.336  18.238  0.00  0.00    -0.574 OA
ATOM     20  H   UNL     1      41.875  21.178  18.402  0.00  0.00    +0.383 HD
ENDBRANCH  18  19
ENDBRANCH  15  18
TORSDOF 4
ENDMDL
MODEL 6
REMARK VINA RESULT:      -5.5     20.717     22.325
REMARK  Name = ZINC95486121
REMARK  7 active torsions:
REMARK  status: ('A' for Active; 'I' for Inactive)
REMARK    1  A    between atoms: C1_1  and  C2_2
REMARK    2  A    between atoms: C5_5  and  O3_27
REMARK    3  A    between atoms: C6_7  and  C19_25
REMARK    4  A    between atoms: C6_7  and  C20_26
REMARK    5  A    between atoms: C16_20  and  C18_22
REMARK    6  A    between atoms: C16_20  and  O2_24
REMARK    7  A    between atoms: C18_22  and  O1_23
REMARK                            x       y       z     vdW  Elec       q    Type
REMARK                         _______ _______ _______ _____ _____    ______ ____
ROOT
ATOM      1  C   UNL     1      48.003  18.576  21.994  0.00  0.00    +0.010 C 
ATOM      2  C   UNL     1      47.576  19.306  20.697  0.00  0.00    -0.030 C 
ATOM      3  C   UNL     1      48.005  20.765  20.808  0.00  0.00    +0.031 C 
ATOM      4  C   UNL     1      49.527  20.862  20.916  0.00  0.00    -0.023 C 
ATOM      5  C   UNL     1      50.165  20.283  19.660  0.00  0.00    +0.165 C 
ATOM      8  C   UNL     1      49.741  18.838  19.419  0.00  0.00    -0.042 C 
ATOM      9  C   UNL     1      50.258  18.446  18.016  0.00  0.00    +0.025 C 
ATOM     10  C   UNL     1      50.495  17.918  20.393  0.00  0.00    +0.027 C 
ATOM     11  C   UNL     1      46.057  19.194  20.671  0.00  0.00    -0.005 C 
ATOM     12  C   UNL     1      45.376  19.997  21.768  0.00  0.00    +0.018 C 
ATOM     13  C   UNL     1      44.915  21.384  21.353  0.00  0.00    +0.023 C 
ATOM     14  C   UNL     1      44.247  21.392  19.976  0.00  0.00    +0.005 C 
ATOM     15  C   UNL     1      43.174  20.285  19.902  0.00  0.00    +0.144 C 
ATOM     21  C   UNL     1      43.910  19.004  19.458  0.00  0.00    +0.008 C 
ATOM     22  C   UNL     1      45.331  20.910  18.971  0.00  0.00    +0.031 C 
ATOM     23  C   UNL     1      45.394  19.411  19.327  0.00  0.00    -0.044 C 
ATOM     24  C   UNL     1      46.084  18.630  18.227  0.00  0.00    +0.010 C 
ATOM     25  C   UNL     1      47.561  19.062  18.198  0.00  0.00    +0.027 C 
ATOM     26  C   UNL     1      48.238  18.630  19.500  0.00  0.00    +0.013 C 
ENDROOT
BRANCH   5   6
ATOM      6  O   UNL     1      49.817  21.084  18.527  0.00  0.00    -0.559 OA
ATOM      7  H   UNL     1      50.091  20.709  17.680  0.00  0.00    +0.372 HD
ENDBRANCH   5   6
BRANCH  15  16
ATOM     16  O   UNL     1      42.551  20.095  21.172  0.00  0.00    -0.549 OA
ATOM     17  H   UNL     1      42.027  20.851  21.470  0.00  0.00    +0.379 HD
ENDBRANCH  15  16
BRANCH  15  18
ATOM     18  C   UNL     1      42.112  20.659  18.861  0.00  0.00    +0.153 C 
BRANCH  18  19
ATOM     19  O   UNL     1      41.971  22.080  18.813  0.00  0.00    -0.574 OA
ATOM     20  H   UNL     1      42.512  22.550  19.462  0.00  0.00    +0.383 HD
ENDBRANCH  18  19
ENDBRANCH  15  18
TORSDOF 4
ENDMDL
MODEL 7
REMARK VINA RESULT:      -5.4      1.938      2.774
REMARK  Name = ZINC95486121
REMARK  7 active torsions:
REMARK  status: ('A' for Active; 'I' for Inactive)
REMARK    1  A    between atoms: C1_1  and  C2_2
REMARK    2  A    between atoms: C5_5  and  O3_27
REMARK    3  A    between atoms: C6_7  and  C19_25
REMARK    4  A    between atoms: C6_7  and  C20_26
REMARK    5  A    between atoms: C16_20  and  C18_22
REMARK    6  A    between atoms: C16_20  and  O2_24
REMARK    7  A    between atoms: C18_22  and  O1_23
REMARK                            x       y       z     vdW  Elec       q    Type
REMARK                         _______ _______ _______ _____ _____    ______ ____
ROOT
ATOM      1  C   UNL     1      57.082  31.254   2.426  0.00  0.00    +0.010 C 
ATOM      2  C   UNL     1      55.859  32.203   2.370  0.00  0.00    -0.030 C 
ATOM      3  C   UNL     1      56.343  33.576   1.917  0.00  0.00    +0.031 C 
ATOM      4  C   UNL     1      56.929  33.493   0.507  0.00  0.00    -0.023 C 
ATOM      5  C   UNL     1      55.851  33.033  -0.466  0.00  0.00    +0.165 C 
ATOM      8  C   UNL     1      55.250  31.691  -0.060  0.00  0.00    -0.042 C 
ATOM      9  C   UNL     1      54.029  31.449  -0.977  0.00  0.00    +0.025 C 
ATOM     10  C   UNL     1      56.239  30.566  -0.407  0.00  0.00    +0.027 C 
ATOM     11  C   UNL     1      55.349  32.261   3.804  0.00  0.00    -0.005 C 
ATOM     12  C   UNL     1      56.301  32.969   4.755  0.00  0.00    +0.018 C 
ATOM     13  C   UNL     1      56.006  34.443   4.978  0.00  0.00    +0.023 C 
ATOM     14  C   UNL     1      54.512  34.718   5.166  0.00  0.00    +0.005 C 
ATOM     15  C   UNL     1      53.925  33.755   6.221  0.00  0.00    +0.144 C 
ATOM     21  C   UNL     1      53.520  32.478   5.456  0.00  0.00    +0.008 C 
ATOM     22  C   UNL     1      53.823  34.269   3.846  0.00  0.00    +0.031 C 
ATOM     23  C   UNL     1      53.923  32.737   3.987  0.00  0.00    -0.044 C 
ATOM     24  C   UNL     1      52.974  32.050   3.026  0.00  0.00    +0.010 C 
ATOM     25  C   UNL     1      53.474  32.320   1.596  0.00  0.00    +0.027 C 
ATOM     26  C   UNL     1      54.828  31.637   1.399  0.00  0.00    +0.013 C 
ENDROOT
BRANCH   5   6
ATOM      6  O   UNL     1      54.819  34.020  -0.546  0.00  0.00    -0.559 OA
ATOM      7  H   UNL     1      54.933  34.652  -1.269  0.00  0.00    +0.372 HD
ENDBRANCH   5   6
BRANCH  15  16
ATOM     16  O   UNL     1      54.890  33.454   7.227  0.00  0.00    -0.549 OA
ATOM     17  H   UNL     1      55.570  34.133   7.336  0.00  0.00    +0.379 HD
ENDBRANCH  15  16
BRANCH  15  18
ATOM     18  C   UNL     1      52.687  34.386   6.869  0.00  0.00    +0.153 C 
BRANCH  18  19
ATOM     19  O   UNL     1      53.092  35.234   7.945  0.00  0.00    -0.574 OA
ATOM     20  H   UNL     1      52.702  36.117   7.918  0.00  0.00    +0.383 HD
ENDBRANCH  18  19
ENDBRANCH  15  18
TORSDOF 4
ENDMDL
MODEL 8
REMARK VINA RESULT:      -5.3     21.607     23.942
REMARK  Name = ZINC95486121
REMARK  7 active torsions:
REMARK  status: ('A' for Active; 'I' for Inactive)
REMARK    1  A    between atoms: C1_1  and  C2_2
REMARK    2  A    between atoms: C5_5  and  O3_27
REMARK    3  A    between atoms: C6_7  and  C19_25
REMARK    4  A    between atoms: C6_7  and  C20_26
REMARK    5  A    between atoms: C16_20  and  C18_22
REMARK    6  A    between atoms: C16_20  and  O2_24
REMARK    7  A    between atoms: C18_22  and  O1_23
REMARK                            x       y       z     vdW  Elec       q    Type
REMARK                         _______ _______ _______ _____ _____    ______ ____
ROOT
ATOM      1  C   UNL     1      45.431  18.605  22.214  0.00  0.00    +0.010 C 
ATOM      2  C   UNL     1      45.490  18.645  20.666  0.00  0.00    -0.030 C 
ATOM      3  C   UNL     1      44.129  18.216  20.128  0.00  0.00    +0.031 C 
ATOM      4  C   UNL     1      43.048  19.199  20.576  0.00  0.00    -0.023 C 
ATOM      5  C   UNL     1      43.355  20.583  20.019  0.00  0.00    +0.165 C 
ATOM      8  C   UNL     1      44.732  21.078  20.446  0.00  0.00    -0.042 C 
ATOM      9  C   UNL     1      45.017  22.366  19.641  0.00  0.00    +0.025 C 
ATOM     10  C   UNL     1      44.677  21.530  21.915  0.00  0.00    +0.027 C 
ATOM     11  C   UNL     1      46.560  17.628  20.293  0.00  0.00    -0.005 C 
ATOM     12  C   UNL     1      46.158  16.193  20.594  0.00  0.00    +0.018 C 
ATOM     13  C   UNL     1      45.552  15.439  19.422  0.00  0.00    +0.023 C 
ATOM     14  C   UNL     1      46.308  15.684  18.114  0.00  0.00    +0.005 C 
ATOM     15  C   UNL     1      47.822  15.471  18.330  0.00  0.00    +0.144 C 
ATOM     21  C   UNL     1      48.378  16.823  18.822  0.00  0.00    +0.008 C 
ATOM     22  C   UNL     1      46.196  17.209  17.833  0.00  0.00    +0.031 C 
ATOM     23  C   UNL     1      47.154  17.762  18.907  0.00  0.00    -0.044 C 
ATOM     24  C   UNL     1      47.535  19.195  18.595  0.00  0.00    +0.010 C 
ATOM     25  C   UNL     1      46.274  20.062  18.748  0.00  0.00    +0.027 C 
ATOM     26  C   UNL     1      45.836  20.060  20.214  0.00  0.00    +0.013 C 
ENDROOT
BRANCH   5   6
ATOM      6  O   UNL     1      43.271  20.559  18.591  0.00  0.00    -0.559 OA
ATOM      7  H   UNL     1      43.909  21.136  18.149  0.00  0.00    +0.372 HD
ENDBRANCH   5   6
BRANCH  15  16
ATOM     16  O   UNL     1      48.058  14.448  19.296  0.00  0.00    -0.549 OA
ATOM     17  H   UNL     1      48.494  14.760  20.101  0.00  0.00    +0.379 HD
ENDBRANCH  15  16
BRANCH  15  18
ATOM     18  C   UNL     1      48.488  15.088  17.003  0.00  0.00    +0.153 C 
BRANCH  18  19
ATOM     19  O   UNL     1      47.507  14.542  16.118  0.00  0.00    -0.574 OA
ATOM     20  H   UNL     1      47.871  14.205  15.289  0.00  0.00    +0.383 HD
ENDBRANCH  18  19
ENDBRANCH  15  18
TORSDOF 4
ENDMDL
MODEL 9
REMARK VINA RESULT:      -5.3     21.058     22.915
REMARK  Name = ZINC95486121
REMARK  7 active torsions:
REMARK  status: ('A' for Active; 'I' for Inactive)
REMARK    1  A    between atoms: C1_1  and  C2_2
REMARK    2  A    between atoms: C5_5  and  O3_27
REMARK    3  A    between atoms: C6_7  and  C19_25
REMARK    4  A    between atoms: C6_7  and  C20_26
REMARK    5  A    between atoms: C16_20  and  C18_22
REMARK    6  A    between atoms: C16_20  and  O2_24
REMARK    7  A    between atoms: C18_22  and  O1_23
REMARK                            x       y       z     vdW  Elec       q    Type
REMARK                         _______ _______ _______ _____ _____    ______ ____
ROOT
ATOM      1  C   UNL     1      49.035  17.146  20.380  0.00  0.00    +0.010 C 
ATOM      2  C   UNL     1      47.805  17.489  19.503  0.00  0.00    -0.030 C 
ATOM      3  C   UNL     1      48.306  17.918  18.128  0.00  0.00    +0.031 C 
ATOM      4  C   UNL     1      49.051  16.767  17.452  0.00  0.00    -0.023 C 
ATOM      5  C   UNL     1      48.102  15.591  17.257  0.00  0.00    +0.165 C 
ATOM      8  C   UNL     1      47.490  15.127  18.574  0.00  0.00    -0.042 C 
ATOM      9  C   UNL     1      46.388  14.102  18.221  0.00  0.00    +0.025 C 
ATOM     10  C   UNL     1      48.537  14.329  19.368  0.00  0.00    +0.027 C 
ATOM     11  C   UNL     1      47.134  18.654  20.217  0.00  0.00    -0.005 C 
ATOM     12  C   UNL     1      47.955  19.933  20.187  0.00  0.00    +0.018 C 
ATOM     13  C   UNL     1      47.602  20.895  19.064  0.00  0.00    +0.023 C 
ATOM     14  C   UNL     1      46.091  21.041  18.872  0.00  0.00    +0.005 C 
ATOM     15  C   UNL     1      45.409  21.323  20.228  0.00  0.00    +0.144 C 
ATOM     21  C   UNL     1      45.123  19.945  20.859  0.00  0.00    +0.008 C 
ATOM     22  C   UNL     1      45.568  19.626  18.494  0.00  0.00    +0.031 C 
ATOM     23  C   UNL     1      45.685  18.913  19.856  0.00  0.00    -0.044 C 
ATOM     24  C   UNL     1      44.868  17.637  19.863  0.00  0.00    +0.010 C 
ATOM     25  C   UNL     1      45.522  16.653  18.877  0.00  0.00    +0.027 C 
ATOM     26  C   UNL     1      46.906  16.262  19.399  0.00  0.00    +0.013 C 
ENDROOT
BRANCH   5   6
ATOM      6  O   UNL     1      47.064  15.955  16.343  0.00  0.00    -0.559 OA
ATOM      7  H   UNL     1      46.523  15.211  16.046  0.00  0.00    +0.372 HD
ENDBRANCH   5   6
BRANCH  15  16
ATOM     16  O   UNL     1      46.260  22.098  21.073  0.00  0.00    -0.549 OA
ATOM     17  H   UNL     1      45.836  22.885  21.441  0.00  0.00    +0.379 HD
ENDBRANCH  15  16
BRANCH  15  18
ATOM     18  C   UNL     1      44.091  22.073  20.001  0.00  0.00    +0.153 C 
BRANCH  18  19
ATOM     19  O   UNL     1      43.928  23.068  21.014  0.00  0.00    -0.574 OA
ATOM     20  H   UNL     1      44.660  23.696  21.068  0.00  0.00    +0.383 HD
ENDBRANCH  18  19
ENDBRANCH  15  18
TORSDOF 4
ENDMDL
