MODEL 1
REMARK VINA RESULT:      -5.8      0.000      0.000
REMARK  Name = ZINC15120569
REMARK  11 active torsions:
REMARK  status: ('A' for Active; 'I' for Inactive)
REMARK    1  A    between atoms: C1_1  and  C2_2
REMARK    2  A    between atoms: C2_2  and  C18_22
REMARK    3  A    between atoms: C3_3  and  C4_4
REMARK    4  A    between atoms: C4_4  and  C5_5
REMARK    5  A    between atoms: C5_5  and  C6_6
REMARK    6  A    between atoms: C6_6  and  C17_21
REMARK    7  A    between atoms: C7_7  and  C8_8
REMARK    8  A    between atoms: C8_8  and  C9_9
REMARK    9  A    between atoms: C9_9  and  C15_18
REMARK   10  A    between atoms: C11_11  and  O2_17
REMARK   11  A    between atoms: C15_18  and  C16_19
REMARK                            x       y       z     vdW  Elec       q    Type
REMARK                         _______ _______ _______ _____ _____    ______ ____
ROOT
ATOM     11  C   UNL     1      50.846  19.897  18.594  0.00  0.00    -0.065 C 
ATOM     16  C   UNL     1      50.794  21.095  17.636  0.00  0.00    +0.080 C 
ATOM     17  C   UNL     1      51.915  20.960  16.607  0.00  0.00    +0.203 C 
ATOM     20  C   UNL     1      51.874  19.621  15.934  0.00  0.00    +0.011 C 
ATOM     21  C   UNL     1      51.281  18.558  16.464  0.00  0.00    -0.089 C 
ATOM     22  C   UNL     1      50.612  18.649  17.767  0.00  0.00    +0.384 C 
ATOM     23  O   UNL     1      49.897  17.756  18.168  0.00  0.00    -0.443 OA
ENDROOT
BRANCH  17  18
ATOM     18  O   UNL     1      51.773  21.984  15.621  0.00  0.00    -0.557 OA
ATOM     19  H   UNL     1      51.929  22.877  15.956  0.00  0.00    +0.373 HD
ENDBRANCH  17  18
BRANCH  11  10
ATOM     10  C   UNL     1      49.751  20.031  19.656  0.00  0.00    +0.092 C 
BRANCH  10   9
ATOM      7  C   UNL     1      47.350  20.245  19.268  0.00  0.00    -0.144 C 
ATOM      8  C   UNL     1      47.175  18.929  19.982  0.00  0.00    +0.064 C 
ATOM      9  C   UNL     1      48.553  20.720  19.057  0.00  0.00    -0.022 C 
BRANCH   7   6
ATOM      6  C   UNL     1      46.142  21.014  18.797  0.00  0.00    +0.057 C 
BRANCH   6   5
ATOM      5  C   UNL     1      45.289  21.411  20.003  0.00  0.00    +0.050 C 
BRANCH   5   4
ATOM      1  C   UNL     1      46.839  22.769  21.925  0.00  0.00    +0.073 C 
ATOM      2  C   UNL     1      45.961  23.547  20.979  0.00  0.00    -0.139 C 
ATOM      3  C   UNL     1      45.933  25.052  21.043  0.00  0.00    +0.067 C 
ATOM      4  C   UNL     1      45.225  22.914  20.099  0.00  0.00    -0.058 C 
ENDBRANCH   5   4
ENDBRANCH   6   5
ENDBRANCH   7   6
ENDBRANCH  10   9
ENDBRANCH  11  10
BRANCH  11  12
ATOM     12  C   UNL     1      52.218  19.827  19.266  0.00  0.00    -0.011 C 
BRANCH  12  13
ATOM     13  C   UNL     1      52.283  20.839  20.381  0.00  0.00    +0.470 C 
ATOM     14  O   UNL     1      52.534  22.127  20.103  0.00  0.00    -0.769 OA
ATOM     15  O   UNL     1      52.110  20.490  21.525  0.00  0.00    -0.625 OA
ENDBRANCH  12  13
ENDBRANCH  11  12
TORSDOF 8
ENDMDL
MODEL 2
REMARK VINA RESULT:      -5.8      1.284      2.083
REMARK  Name = ZINC15120569
REMARK  11 active torsions:
REMARK  status: ('A' for Active; 'I' for Inactive)
REMARK    1  A    between atoms: C1_1  and  C2_2
REMARK    2  A    between atoms: C2_2  and  C18_22
REMARK    3  A    between atoms: C3_3  and  C4_4
REMARK    4  A    between atoms: C4_4  and  C5_5
REMARK    5  A    between atoms: C5_5  and  C6_6
REMARK    6  A    between atoms: C6_6  and  C17_21
REMARK    7  A    between atoms: C7_7  and  C8_8
REMARK    8  A    between atoms: C8_8  and  C9_9
REMARK    9  A    between atoms: C9_9  and  C15_18
REMARK   10  A    between atoms: C11_11  and  O2_17
REMARK   11  A    between atoms: C15_18  and  C16_19
REMARK                            x       y       z     vdW  Elec       q    Type
REMARK                         _______ _______ _______ _____ _____    ______ ____
ROOT
ATOM     11  C   UNL     1      50.898  19.781  18.485  0.00  0.00    -0.065 C 
ATOM     16  C   UNL     1      50.801  21.021  17.586  0.00  0.00    +0.080 C 
ATOM     17  C   UNL     1      51.912  20.965  16.539  0.00  0.00    +0.203 C 
ATOM     20  C   UNL     1      51.898  19.659  15.803  0.00  0.00    +0.011 C 
ATOM     21  C   UNL     1      51.342  18.557  16.289  0.00  0.00    -0.089 C 
ATOM     22  C   UNL     1      50.688  18.567  17.603  0.00  0.00    +0.384 C 
ATOM     23  O   UNL     1      50.002  17.636  17.969  0.00  0.00    -0.443 OA
ENDROOT
BRANCH  17  18
ATOM     18  O   UNL     1      51.729  22.031  15.605  0.00  0.00    -0.557 OA
ATOM     19  H   UNL     1      52.546  22.484  15.358  0.00  0.00    +0.373 HD
ENDBRANCH  17  18
BRANCH  11  10
ATOM     10  C   UNL     1      49.814  19.833  19.565  0.00  0.00    +0.092 C 
BRANCH  10   9
ATOM      7  C   UNL     1      47.443  20.233  19.140  0.00  0.00    -0.144 C 
ATOM      8  C   UNL     1      47.188  18.801  19.539  0.00  0.00    +0.064 C 
ATOM      9  C   UNL     1      48.670  20.689  19.086  0.00  0.00    -0.022 C 
BRANCH   7   6
ATOM      6  C   UNL     1      46.286  21.139  18.803  0.00  0.00    +0.057 C 
BRANCH   6   5
ATOM      5  C   UNL     1      45.305  21.169  19.976  0.00  0.00    +0.050 C 
BRANCH   5   4
ATOM      1  C   UNL     1      43.368  19.126  19.850  0.00  0.00    +0.073 C 
ATOM      2  C   UNL     1      43.013  20.528  19.425  0.00  0.00    -0.139 C 
ATOM      3  C   UNL     1      41.616  20.843  18.958  0.00  0.00    +0.067 C 
ATOM      4  C   UNL     1      43.920  21.473  19.463  0.00  0.00    -0.058 C 
ENDBRANCH   5   4
ENDBRANCH   6   5
ENDBRANCH   7   6
ENDBRANCH  10   9
ENDBRANCH  11  10
BRANCH  11  12
ATOM     12  C   UNL     1      52.280  19.717  19.137  0.00  0.00    -0.011 C 
BRANCH  12  13
ATOM     13  C   UNL     1      52.334  20.681  20.294  0.00  0.00    +0.470 C 
ATOM     14  O   UNL     1      52.479  21.995  20.065  0.00  0.00    -0.769 OA
ATOM     15  O   UNL     1      52.247  20.272  21.427  0.00  0.00    -0.625 OA
ENDBRANCH  12  13
ENDBRANCH  11  12
TORSDOF 8
ENDMDL
MODEL 3
REMARK VINA RESULT:      -5.5      1.805      2.602
REMARK  Name = ZINC15120569
REMARK  11 active torsions:
REMARK  status: ('A' for Active; 'I' for Inactive)
REMARK    1  A    between atoms: C1_1  and  C2_2
REMARK    2  A    between atoms: C2_2  and  C18_22
REMARK    3  A    between atoms: C3_3  and  C4_4
REMARK    4  A    between atoms: C4_4  and  C5_5
REMARK    5  A    between atoms: C5_5  and  C6_6
REMARK    6  A    between atoms: C6_6  and  C17_21
REMARK    7  A    between atoms: C7_7  and  C8_8
REMARK    8  A    between atoms: C8_8  and  C9_9
REMARK    9  A    between atoms: C9_9  and  C15_18
REMARK   10  A    between atoms: C11_11  and  O2_17
REMARK   11  A    between atoms: C15_18  and  C16_19
REMARK                            x       y       z     vdW  Elec       q    Type
REMARK                         _______ _______ _______ _____ _____    ______ ____
ROOT
ATOM     11  C   UNL     1      50.886  19.681  18.386  0.00  0.00    -0.065 C 
ATOM     16  C   UNL     1      50.817  20.970  17.556  0.00  0.00    +0.080 C 
ATOM     17  C   UNL     1      51.909  20.934  16.488  0.00  0.00    +0.203 C 
ATOM     20  C   UNL     1      51.840  19.670  15.685  0.00  0.00    +0.011 C 
ATOM     21  C   UNL     1      51.254  18.562  16.121  0.00  0.00    -0.089 C 
ATOM     22  C   UNL     1      50.621  18.524  17.445  0.00  0.00    +0.384 C 
ATOM     23  O   UNL     1      49.911  17.598  17.773  0.00  0.00    -0.443 OA
ENDROOT
BRANCH  17  18
ATOM     18  O   UNL     1      51.748  22.054  15.615  0.00  0.00    -0.557 OA
ATOM     19  H   UNL     1      52.578  22.409  15.271  0.00  0.00    +0.373 HD
ENDBRANCH  17  18
BRANCH  11  10
ATOM     10  C   UNL     1      49.822  19.711  19.486  0.00  0.00    +0.092 C 
BRANCH  10   9
ATOM      7  C   UNL     1      47.463  20.227  19.125  0.00  0.00    -0.144 C 
ATOM      8  C   UNL     1      47.158  18.785  19.441  0.00  0.00    +0.064 C 
ATOM      9  C   UNL     1      48.705  20.638  19.079  0.00  0.00    -0.022 C 
BRANCH   7   6
ATOM      6  C   UNL     1      46.338  21.196  18.862  0.00  0.00    +0.057 C 
BRANCH   6   5
ATOM      5  C   UNL     1      45.226  20.977  19.890  0.00  0.00    +0.050 C 
BRANCH   5   4
ATOM      1  C   UNL     1      43.350  18.878  20.005  0.00  0.00    +0.073 C 
ATOM      2  C   UNL     1      43.004  20.159  19.291  0.00  0.00    -0.139 C 
ATOM      3  C   UNL     1      41.646  20.328  18.660  0.00  0.00    +0.067 C 
ATOM      4  C   UNL     1      43.885  21.127  19.219  0.00  0.00    -0.058 C 
ENDBRANCH   5   4
ENDBRANCH   6   5
ENDBRANCH   7   6
ENDBRANCH  10   9
ENDBRANCH  11  10
BRANCH  11  12
ATOM     12  C   UNL     1      52.275  19.537  19.010  0.00  0.00    -0.011 C 
BRANCH  12  13
ATOM     13  C   UNL     1      52.421  18.157  19.598  0.00  0.00    +0.470 C 
ATOM     14  O   UNL     1      53.100  17.212  18.930  0.00  0.00    -0.769 OA
ATOM     15  O   UNL     1      51.925  17.901  20.670  0.00  0.00    -0.625 OA
ENDBRANCH  12  13
ENDBRANCH  11  12
TORSDOF 8
ENDMDL
MODEL 4
REMARK VINA RESULT:      -5.5      1.512      3.094
REMARK  Name = ZINC15120569
REMARK  11 active torsions:
REMARK  status: ('A' for Active; 'I' for Inactive)
REMARK    1  A    between atoms: C1_1  and  C2_2
REMARK    2  A    between atoms: C2_2  and  C18_22
REMARK    3  A    between atoms: C3_3  and  C4_4
REMARK    4  A    between atoms: C4_4  and  C5_5
REMARK    5  A    between atoms: C5_5  and  C6_6
REMARK    6  A    between atoms: C6_6  and  C17_21
REMARK    7  A    between atoms: C7_7  and  C8_8
REMARK    8  A    between atoms: C8_8  and  C9_9
REMARK    9  A    between atoms: C9_9  and  C15_18
REMARK   10  A    between atoms: C11_11  and  O2_17
REMARK   11  A    between atoms: C15_18  and  C16_19
REMARK                            x       y       z     vdW  Elec       q    Type
REMARK                         _______ _______ _______ _____ _____    ______ ____
ROOT
ATOM     11  C   UNL     1      51.008  20.457  18.987  0.00  0.00    -0.065 C 
ATOM     16  C   UNL     1      50.669  21.140  17.655  0.00  0.00    +0.080 C 
ATOM     17  C   UNL     1      51.868  21.023  16.715  0.00  0.00    +0.203 C 
ATOM     20  C   UNL     1      52.319  19.599  16.589  0.00  0.00    +0.011 C 
ATOM     21  C   UNL     1      52.048  18.667  17.494  0.00  0.00    -0.089 C 
ATOM     22  C   UNL     1      51.265  18.994  18.691  0.00  0.00    +0.384 C 
ATOM     23  O   UNL     1      50.836  18.122  19.417  0.00  0.00    -0.443 OA
ENDROOT
BRANCH  17  18
ATOM     18  O   UNL     1      51.501  21.515  15.425  0.00  0.00    -0.557 OA
ATOM     19  H   UNL     1      51.828  20.978  14.691  0.00  0.00    +0.373 HD
ENDBRANCH  17  18
BRANCH  11  10
ATOM     10  C   UNL     1      49.833  20.593  19.958  0.00  0.00    +0.092 C 
BRANCH  10   9
ATOM      7  C   UNL     1      47.437  21.014  19.740  0.00  0.00    -0.144 C 
ATOM      8  C   UNL     1      47.431  21.401  21.197  0.00  0.00    +0.064 C 
ATOM      9  C   UNL     1      48.539  20.573  19.185  0.00  0.00    -0.022 C 
BRANCH   7   6
ATOM      6  C   UNL     1      46.177  21.134  18.923  0.00  0.00    +0.057 C 
BRANCH   6   5
ATOM      5  C   UNL     1      45.316  19.886  19.128  0.00  0.00    +0.050 C 
BRANCH   5   4
ATOM      1  C   UNL     1      46.469  17.398  19.780  0.00  0.00    +0.073 C 
ATOM      2  C   UNL     1      46.132  17.720  18.346  0.00  0.00    -0.139 C 
ATOM      3  C   UNL     1      46.387  16.702  17.265  0.00  0.00    +0.067 C 
ATOM      4  C   UNL     1      45.616  18.885  18.041  0.00  0.00    -0.058 C 
ENDBRANCH   5   4
ENDBRANCH   6   5
ENDBRANCH   7   6
ENDBRANCH  10   9
ENDBRANCH  11  10
BRANCH  11  12
ATOM     12  C   UNL     1      52.261  21.092  19.594  0.00  0.00    -0.011 C 
BRANCH  12  13
ATOM     13  C   UNL     1      52.220  20.949  21.094  0.00  0.00    +0.470 C 
ATOM     14  O   UNL     1      52.616  19.803  21.669  0.00  0.00    -0.769 OA
ATOM     15  O   UNL     1      51.829  21.865  21.778  0.00  0.00    -0.625 OA
ENDBRANCH  12  13
ENDBRANCH  11  12
TORSDOF 8
ENDMDL
MODEL 5
REMARK VINA RESULT:      -5.3      4.180      7.976
REMARK  Name = ZINC15120569
REMARK  11 active torsions:
REMARK  status: ('A' for Active; 'I' for Inactive)
REMARK    1  A    between atoms: C1_1  and  C2_2
REMARK    2  A    between atoms: C2_2  and  C18_22
REMARK    3  A    between atoms: C3_3  and  C4_4
REMARK    4  A    between atoms: C4_4  and  C5_5
REMARK    5  A    between atoms: C5_5  and  C6_6
REMARK    6  A    between atoms: C6_6  and  C17_21
REMARK    7  A    between atoms: C7_7  and  C8_8
REMARK    8  A    between atoms: C8_8  and  C9_9
REMARK    9  A    between atoms: C9_9  and  C15_18
REMARK   10  A    between atoms: C11_11  and  O2_17
REMARK   11  A    between atoms: C15_18  and  C16_19
REMARK                            x       y       z     vdW  Elec       q    Type
REMARK                         _______ _______ _______ _____ _____    ______ ____
ROOT
ATOM     11  C   UNL     1      43.519  19.836  19.683  0.00  0.00    -0.065 C 
ATOM     16  C   UNL     1      43.661  18.519  20.458  0.00  0.00    +0.080 C 
ATOM     17  C   UNL     1      42.700  18.534  21.646  0.00  0.00    +0.203 C 
ATOM     20  C   UNL     1      41.302  18.853  21.208  0.00  0.00    +0.011 C 
ATOM     21  C   UNL     1      41.021  19.485  20.075  0.00  0.00    -0.089 C 
ATOM     22  C   UNL     1      42.096  19.906  19.169  0.00  0.00    +0.384 C 
ATOM     23  O   UNL     1      41.852  20.295  18.046  0.00  0.00    -0.443 OA
ENDROOT
BRANCH  17  18
ATOM     18  O   UNL     1      42.713  17.252  22.275  0.00  0.00    -0.557 OA
ATOM     19  H   UNL     1      43.593  16.949  22.535  0.00  0.00    +0.373 HD
ENDBRANCH  17  18
BRANCH  11  10
ATOM     10  C   UNL     1      44.499  19.857  18.507  0.00  0.00    +0.092 C 
BRANCH  10   9
ATOM      7  C   UNL     1      46.825  19.251  18.931  0.00  0.00    -0.144 C 
ATOM      8  C   UNL     1      47.177  20.706  18.756  0.00  0.00    +0.064 C 
ATOM      9  C   UNL     1      45.593  18.849  18.746  0.00  0.00    -0.022 C 
BRANCH   7   6
ATOM      6  C   UNL     1      47.892  18.258  19.318  0.00  0.00    +0.057 C 
BRANCH   6   5
ATOM      5  C   UNL     1      49.243  18.970  19.403  0.00  0.00    +0.050 C 
BRANCH   5   4
ATOM      1  C   UNL     1      50.799  20.911  18.079  0.00  0.00    +0.073 C 
ATOM      2  C   UNL     1      50.832  19.477  17.618  0.00  0.00    -0.139 C 
ATOM      3  C   UNL     1      51.717  19.075  16.467  0.00  0.00    +0.067 C 
ATOM      4  C   UNL     1      50.092  18.578  18.220  0.00  0.00    -0.058 C 
ENDBRANCH   5   4
ENDBRANCH   6   5
ENDBRANCH   7   6
ENDBRANCH  10   9
ENDBRANCH  11  10
BRANCH  11  12
ATOM     12  C   UNL     1      43.795  21.020  20.611  0.00  0.00    -0.011 C 
BRANCH  12  13
ATOM     13  C   UNL     1      43.855  22.290  19.802  0.00  0.00    +0.470 C 
ATOM     14  O   UNL     1      42.720  22.907  19.438  0.00  0.00    -0.769 OA
ATOM     15  O   UNL     1      44.924  22.752  19.480  0.00  0.00    -0.625 OA
ENDBRANCH  12  13
ENDBRANCH  11  12
TORSDOF 8
ENDMDL
MODEL 6
REMARK VINA RESULT:      -5.2      4.671      8.308
REMARK  Name = ZINC15120569
REMARK  11 active torsions:
REMARK  status: ('A' for Active; 'I' for Inactive)
REMARK    1  A    between atoms: C1_1  and  C2_2
REMARK    2  A    between atoms: C2_2  and  C18_22
REMARK    3  A    between atoms: C3_3  and  C4_4
REMARK    4  A    between atoms: C4_4  and  C5_5
REMARK    5  A    between atoms: C5_5  and  C6_6
REMARK    6  A    between atoms: C6_6  and  C17_21
REMARK    7  A    between atoms: C7_7  and  C8_8
REMARK    8  A    between atoms: C8_8  and  C9_9
REMARK    9  A    between atoms: C9_9  and  C15_18
REMARK   10  A    between atoms: C11_11  and  O2_17
REMARK   11  A    between atoms: C15_18  and  C16_19
REMARK                            x       y       z     vdW  Elec       q    Type
REMARK                         _______ _______ _______ _____ _____    ______ ____
ROOT
ATOM     11  C   UNL     1      43.646  19.835  19.756  0.00  0.00    -0.065 C 
ATOM     16  C   UNL     1      43.821  18.464  20.425  0.00  0.00    +0.080 C 
ATOM     17  C   UNL     1      42.897  18.380  21.638  0.00  0.00    +0.203 C 
ATOM     20  C   UNL     1      41.484  18.717  21.267  0.00  0.00    +0.011 C 
ATOM     21  C   UNL     1      41.164  19.429  20.194  0.00  0.00    -0.089 C 
ATOM     22  C   UNL     1      42.207  19.928  19.290  0.00  0.00    +0.384 C 
ATOM     23  O   UNL     1      41.927  20.398  18.208  0.00  0.00    -0.443 OA
ENDROOT
BRANCH  17  18
ATOM     18  O   UNL     1      42.939  17.054  22.168  0.00  0.00    -0.557 OA
ATOM     19  H   UNL     1      42.152  16.805  22.671  0.00  0.00    +0.373 HD
ENDBRANCH  17  18
BRANCH  11  10
ATOM     10  C   UNL     1      44.590  19.954  18.556  0.00  0.00    +0.092 C 
BRANCH  10   9
ATOM      7  C   UNL     1      46.663  18.666  18.615  0.00  0.00    -0.144 C 
ATOM      8  C   UNL     1      47.394  19.961  18.865  0.00  0.00    +0.064 C 
ATOM      9  C   UNL     1      45.371  18.675  18.402  0.00  0.00    -0.022 C 
BRANCH   7   6
ATOM      6  C   UNL     1      47.420  17.363  18.607  0.00  0.00    +0.057 C 
BRANCH   6   5
ATOM      5  C   UNL     1      46.786  16.399  19.612  0.00  0.00    +0.050 C 
BRANCH   5   4
ATOM      1  C   UNL     1      45.203  14.504  20.968  0.00  0.00    +0.073 C 
ATOM      2  C   UNL     1      45.540  14.301  19.513  0.00  0.00    -0.139 C 
ATOM      3  C   UNL     1      45.009  13.098  18.777  0.00  0.00    +0.067 C 
ATOM      4  C   UNL     1      46.294  15.172  18.889  0.00  0.00    -0.058 C 
ENDBRANCH   5   4
ENDBRANCH   6   5
ENDBRANCH   7   6
ENDBRANCH  10   9
ENDBRANCH  11  10
BRANCH  11  12
ATOM     12  C   UNL     1      43.940  20.948  20.763  0.00  0.00    -0.011 C 
BRANCH  12  13
ATOM     13  C   UNL     1      44.187  22.239  20.026  0.00  0.00    +0.470 C 
ATOM     14  O   UNL     1      43.150  22.979  19.605  0.00  0.00    -0.769 OA
ATOM     15  O   UNL     1      45.318  22.608  19.814  0.00  0.00    -0.625 OA
ENDBRANCH  12  13
ENDBRANCH  11  12
TORSDOF 8
ENDMDL
MODEL 7
REMARK VINA RESULT:      -5.2      2.875      6.982
REMARK  Name = ZINC15120569
REMARK  11 active torsions:
REMARK  status: ('A' for Active; 'I' for Inactive)
REMARK    1  A    between atoms: C1_1  and  C2_2
REMARK    2  A    between atoms: C2_2  and  C18_22
REMARK    3  A    between atoms: C3_3  and  C4_4
REMARK    4  A    between atoms: C4_4  and  C5_5
REMARK    5  A    between atoms: C5_5  and  C6_6
REMARK    6  A    between atoms: C6_6  and  C17_21
REMARK    7  A    between atoms: C7_7  and  C8_8
REMARK    8  A    between atoms: C8_8  and  C9_9
REMARK    9  A    between atoms: C9_9  and  C15_18
REMARK   10  A    between atoms: C11_11  and  O2_17
REMARK   11  A    between atoms: C15_18  and  C16_19
REMARK                            x       y       z     vdW  Elec       q    Type
REMARK                         _______ _______ _______ _____ _____    ______ ____
ROOT
ATOM     11  C   UNL     1      46.771  20.698  20.170  0.00  0.00    -0.065 C 
ATOM     16  C   UNL     1      47.171  22.013  20.852  0.00  0.00    +0.080 C 
ATOM     17  C   UNL     1      45.921  22.865  21.064  0.00  0.00    +0.203 C 
ATOM     20  C   UNL     1      44.854  22.092  21.779  0.00  0.00    +0.011 C 
ATOM     21  C   UNL     1      44.807  20.766  21.799  0.00  0.00    -0.089 C 
ATOM     22  C   UNL     1      45.831  19.972  21.110  0.00  0.00    +0.384 C 
ATOM     23  O   UNL     1      45.920  18.775  21.287  0.00  0.00    -0.443 OA
ENDROOT
BRANCH  17  18
ATOM     18  O   UNL     1      46.264  24.016  21.838  0.00  0.00    -0.557 OA
ATOM     19  H   UNL     1      45.510  24.576  22.067  0.00  0.00    +0.373 HD
ENDBRANCH  17  18
BRANCH  11  10
ATOM     10  C   UNL     1      48.015  19.843  19.916  0.00  0.00    +0.092 C 
BRANCH  10   9
ATOM      7  C   UNL     1      50.113  20.760  19.068  0.00  0.00    -0.144 C 
ATOM      8  C   UNL     1      50.686  20.576  20.451  0.00  0.00    +0.064 C 
ATOM      9  C   UNL     1      48.854  20.484  18.840  0.00  0.00    -0.022 C 
BRANCH   7   6
ATOM      6  C   UNL     1      50.990  21.262  17.950  0.00  0.00    +0.057 C 
BRANCH   6   5
ATOM      5  C   UNL     1      52.212  20.352  17.813  0.00  0.00    +0.050 C 
BRANCH   5   4
ATOM      1  C   UNL     1      52.620  17.788  18.907  0.00  0.00    +0.073 C 
ATOM      2  C   UNL     1      52.009  17.934  17.537  0.00  0.00    -0.139 C 
ATOM      3  C   UNL     1      51.592  16.710  16.764  0.00  0.00    +0.067 C 
ATOM      4  C   UNL     1      51.839  19.126  17.020  0.00  0.00    -0.058 C 
ENDBRANCH   5   4
ENDBRANCH   6   5
ENDBRANCH   7   6
ENDBRANCH  10   9
ENDBRANCH  11  10
BRANCH  11  12
ATOM     12  C   UNL     1      46.061  20.991  18.847  0.00  0.00    -0.011 C 
BRANCH  12  13
ATOM     13  C   UNL     1      45.297  19.769  18.406  0.00  0.00    +0.470 C 
ATOM     14  O   UNL     1      43.964  19.723  18.552  0.00  0.00    -0.769 OA
ATOM     15  O   UNL     1      45.884  18.831  17.922  0.00  0.00    -0.625 OA
ENDBRANCH  12  13
ENDBRANCH  11  12
TORSDOF 8
ENDMDL
MODEL 8
REMARK VINA RESULT:      -5.1      3.085      6.708
REMARK  Name = ZINC15120569
REMARK  11 active torsions:
REMARK  status: ('A' for Active; 'I' for Inactive)
REMARK    1  A    between atoms: C1_1  and  C2_2
REMARK    2  A    between atoms: C2_2  and  C18_22
REMARK    3  A    between atoms: C3_3  and  C4_4
REMARK    4  A    between atoms: C4_4  and  C5_5
REMARK    5  A    between atoms: C5_5  and  C6_6
REMARK    6  A    between atoms: C6_6  and  C17_21
REMARK    7  A    between atoms: C7_7  and  C8_8
REMARK    8  A    between atoms: C8_8  and  C9_9
REMARK    9  A    between atoms: C9_9  and  C15_18
REMARK   10  A    between atoms: C11_11  and  O2_17
REMARK   11  A    between atoms: C15_18  and  C16_19
REMARK                            x       y       z     vdW  Elec       q    Type
REMARK                         _______ _______ _______ _____ _____    ______ ____
ROOT
ATOM     11  C   UNL     1      46.320  19.608  19.187  0.00  0.00    -0.065 C 
ATOM     16  C   UNL     1      46.275  21.117  18.908  0.00  0.00    +0.080 C 
ATOM     17  C   UNL     1      44.840  21.613  19.080  0.00  0.00    +0.203 C 
ATOM     20  C   UNL     1      44.283  21.208  20.411  0.00  0.00    +0.011 C 
ATOM     21  C   UNL     1      44.759  20.193  21.121  0.00  0.00    -0.089 C 
ATOM     22  C   UNL     1      45.893  19.403  20.626  0.00  0.00    +0.384 C 
ATOM     23  O   UNL     1      46.468  18.613  21.344  0.00  0.00    -0.443 OA
ENDROOT
BRANCH  17  18
ATOM     18  O   UNL     1      44.822  23.038  18.978  0.00  0.00    -0.557 OA
ATOM     19  H   UNL     1      44.203  23.469  19.583  0.00  0.00    +0.373 HD
ENDBRANCH  17  18
BRANCH  11  10
ATOM     10  C   UNL     1      47.743  19.082  18.986  0.00  0.00    +0.092 C 
BRANCH  10   9
ATOM      7  C   UNL     1      49.766  20.085  19.915  0.00  0.00    -0.144 C 
ATOM      8  C   UNL     1      49.910  18.858  20.779  0.00  0.00    +0.064 C 
ATOM      9  C   UNL     1      48.723  20.218  19.134  0.00  0.00    -0.022 C 
BRANCH   7   6
ATOM      6  C   UNL     1      50.824  21.159  19.950  0.00  0.00    +0.057 C 
BRANCH   6   5
ATOM      5  C   UNL     1      52.135  20.601  19.393  0.00  0.00    +0.050 C 
BRANCH   5   4
ATOM      1  C   UNL     1      52.181  18.262  17.824  0.00  0.00    +0.073 C 
ATOM      2  C   UNL     1      52.124  19.613  17.160  0.00  0.00    -0.139 C 
ATOM      3  C   UNL     1      52.066  19.713  15.657  0.00  0.00    +0.067 C 
ATOM      4  C   UNL     1      52.124  20.702  17.889  0.00  0.00    -0.058 C 
ENDBRANCH   5   4
ENDBRANCH   6   5
ENDBRANCH   7   6
ENDBRANCH  10   9
ENDBRANCH  11  10
BRANCH  11  12
ATOM     12  C   UNL     1      45.357  18.876  18.249  0.00  0.00    -0.011 C 
BRANCH  12  13
ATOM     13  C   UNL     1      45.842  17.466  18.034  0.00  0.00    +0.470 C 
ATOM     14  O   UNL     1      45.560  16.515  18.937  0.00  0.00    -0.769 OA
ATOM     15  O   UNL     1      46.485  17.191  17.048  0.00  0.00    -0.625 OA
ENDBRANCH  12  13
ENDBRANCH  11  12
TORSDOF 8
ENDMDL
MODEL 9
REMARK VINA RESULT:      -5.0      2.373      6.659
REMARK  Name = ZINC15120569
REMARK  11 active torsions:
REMARK  status: ('A' for Active; 'I' for Inactive)
REMARK    1  A    between atoms: C1_1  and  C2_2
REMARK    2  A    between atoms: C2_2  and  C18_22
REMARK    3  A    between atoms: C3_3  and  C4_4
REMARK    4  A    between atoms: C4_4  and  C5_5
REMARK    5  A    between atoms: C5_5  and  C6_6
REMARK    6  A    between atoms: C6_6  and  C17_21
REMARK    7  A    between atoms: C7_7  and  C8_8
REMARK    8  A    between atoms: C8_8  and  C9_9
REMARK    9  A    between atoms: C9_9  and  C15_18
REMARK   10  A    between atoms: C11_11  and  O2_17
REMARK   11  A    between atoms: C15_18  and  C16_19
REMARK                            x       y       z     vdW  Elec       q    Type
REMARK                         _______ _______ _______ _____ _____    ______ ____
ROOT
ATOM     11  C   UNL     1      47.437  20.608  20.739  0.00  0.00    -0.065 C 
ATOM     16  C   UNL     1      46.781  21.160  19.465  0.00  0.00    +0.080 C 
ATOM     17  C   UNL     1      45.455  21.823  19.835  0.00  0.00    +0.203 C 
ATOM     20  C   UNL     1      45.640  22.832  20.929  0.00  0.00    +0.011 C 
ATOM     21  C   UNL     1      46.670  22.816  21.766  0.00  0.00    -0.089 C 
ATOM     22  C   UNL     1      47.709  21.786  21.652  0.00  0.00    +0.384 C 
ATOM     23  O   UNL     1      48.750  21.875  22.268  0.00  0.00    -0.443 OA
ENDROOT
BRANCH  17  18
ATOM     18  O   UNL     1      44.920  22.475  18.682  0.00  0.00    -0.557 OA
ATOM     19  H   UNL     1      44.166  23.050  18.868  0.00  0.00    +0.373 HD
ENDBRANCH  17  18
BRANCH  11  10
ATOM     10  C   UNL     1      48.752  19.908  20.387  0.00  0.00    +0.092 C 
BRANCH  10   9
ATOM      7  C   UNL     1      50.442  20.838  18.891  0.00  0.00    -0.144 C 
ATOM      8  C   UNL     1      51.320  21.039  20.100  0.00  0.00    +0.064 C 
ATOM      9  C   UNL     1      49.225  20.378  19.035  0.00  0.00    -0.022 C 
BRANCH   7   6
ATOM      6  C   UNL     1      50.965  21.168  17.516  0.00  0.00    +0.057 C 
BRANCH   6   5
ATOM      5  C   UNL     1      52.174  20.284  17.206  0.00  0.00    +0.050 C 
BRANCH   5   4
ATOM      1  C   UNL     1      52.647  17.922  18.667  0.00  0.00    +0.073 C 
ATOM      2  C   UNL     1      51.903  17.862  17.358  0.00  0.00    -0.139 C 
ATOM      3  C   UNL     1      51.388  16.543  16.843  0.00  0.00    +0.067 C 
ATOM      4  C   UNL     1      51.702  18.958  16.668  0.00  0.00    -0.058 C 
ENDBRANCH   5   4
ENDBRANCH   6   5
ENDBRANCH   7   6
ENDBRANCH  10   9
ENDBRANCH  11  10
BRANCH  11  12
ATOM     12  C   UNL     1      46.491  19.623  21.428  0.00  0.00    -0.011 C 
BRANCH  12  13
ATOM     13  C   UNL     1      46.673  18.252  20.830  0.00  0.00    +0.470 C 
ATOM     14  O   UNL     1      46.161  17.973  19.622  0.00  0.00    -0.769 OA
ATOM     15  O   UNL     1      47.279  17.403  21.439  0.00  0.00    -0.625 OA
ENDBRANCH  12  13
ENDBRANCH  11  12
TORSDOF 8
ENDMDL
