MODEL 1
REMARK VINA RESULT:      -6.8      0.000      0.000
REMARK  Name = ZINC95486008
REMARK  4 active torsions:
REMARK  status: ('A' for Active; 'I' for Inactive)
REMARK    1  A    between atoms: C1_1  and  C2_2
REMARK    2  A    between atoms: C2_2  and  C21_28
REMARK    3  A    between atoms: C3_3  and  O4_27
REMARK    4  A    between atoms: C19_24  and  O3_26
REMARK                            x       y       z     vdW  Elec       q    Type
REMARK                         _______ _______ _______ _____ _____    ______ ____
ROOT
ATOM      1  C   UNL     1      52.273  19.192  20.663  0.00  0.00    +0.082 C 
ATOM      2  C   UNL     1      50.840  19.672  20.420  0.00  0.00    +0.124 C 
ATOM      3  C   UNL     1      50.455  20.702  21.484  0.00  0.00    +0.041 C 
ATOM      4  C   UNL     1      50.738  20.307  19.026  0.00  0.00    +0.153 C 
ATOM      7  C   UNL     1      49.327  20.875  18.861  0.00  0.00    +0.063 C 
ATOM      8  C   UNL     1      48.312  19.845  19.283  0.00  0.00    -0.159 A 
ATOM      9  C   UNL     1      46.993  20.003  18.885  0.00  0.00    +0.073 A 
ATOM     10  C   UNL     1      46.050  19.081  19.254  0.00  0.00    -0.121 A 
ATOM     11  C   UNL     1      46.390  17.965  20.020  0.00  0.00    -0.034 A 
ATOM     12  C   UNL     1      45.376  16.914  20.365  0.00  0.00    +0.083 C 
ATOM     13  C   UNL     1      43.941  17.419  20.493  0.00  0.00    +0.048 C 
ATOM     14  C   UNL     1      43.879  18.907  20.262  0.00  0.00    +0.021 C 
ATOM     15  C   UNL     1      42.557  19.539  20.011  0.00  0.00    -0.163 A 
ATOM     16  C   UNL     1      41.310  19.341  20.563  0.00  0.00    +0.091 A 
ATOM     17  C   UNL     1      40.272  20.135  20.091  0.00  0.00    -0.038 A 
ATOM     18  C   UNL     1      40.480  21.085  19.106  0.00  0.00    +0.136 A 
ATOM     21  C   UNL     1      41.747  21.285  18.521  0.00  0.00    -0.017 A 
ATOM     22  C   UNL     1      42.789  20.495  18.991  0.00  0.00    +0.113 A 
ATOM     23  O   UNL     1      44.096  20.491  18.605  0.00  0.00    -0.286 OA
ATOM     24  C   UNL     1      47.702  17.823  20.429  0.00  0.00    -0.016 A 
ATOM     25  C   UNL     1      44.600  19.192  18.902  0.00  0.00    +0.222 C 
ATOM     26  C   UNL     1      48.665  18.756  20.061  0.00  0.00    +0.156 A 
ATOM     27  O   UNL     1      49.944  18.563  20.477  0.00  0.00    -0.297 OA
ENDROOT
BRANCH   4   5
ATOM      5  O   UNL     1      50.979  19.315  18.026  0.00  0.00    -0.550 OA
ATOM      6  H   UNL     1      51.721  19.519  17.440  0.00  0.00    +0.380 HD
ENDBRANCH   4   5
BRANCH  18  19
ATOM     19  O   UNL     1      39.433  21.840  18.682  0.00  0.00    -0.497 OA
ATOM     20  H   UNL     1      39.319  22.665  19.174  0.00  0.00    +0.394 HD
ENDBRANCH  18  19
TORSDOF 2
ENDMDL
MODEL 2
REMARK VINA RESULT:      -6.8      1.805      2.738
REMARK  Name = ZINC95486008
REMARK  4 active torsions:
REMARK  status: ('A' for Active; 'I' for Inactive)
REMARK    1  A    between atoms: C1_1  and  C2_2
REMARK    2  A    between atoms: C2_2  and  C21_28
REMARK    3  A    between atoms: C3_3  and  O4_27
REMARK    4  A    between atoms: C19_24  and  O3_26
REMARK                            x       y       z     vdW  Elec       q    Type
REMARK                         _______ _______ _______ _____ _____    ______ ____
ROOT
ATOM      1  C   UNL     1      52.695  18.694  18.387  0.00  0.00    +0.082 C 
ATOM      2  C   UNL     1      51.184  18.821  18.183  0.00  0.00    +0.124 C 
ATOM      3  C   UNL     1      50.900  19.441  16.812  0.00  0.00    +0.041 C 
ATOM      4  C   UNL     1      50.532  17.435  18.268  0.00  0.00    +0.153 C 
ATOM      7  C   UNL     1      49.043  17.585  17.949  0.00  0.00    +0.063 C 
ATOM      8  C   UNL     1      48.466  18.726  18.745  0.00  0.00    -0.159 A 
ATOM      9  C   UNL     1      47.089  18.812  18.889  0.00  0.00    +0.073 A 
ATOM     10  C   UNL     1      46.538  19.839  19.609  0.00  0.00    -0.121 A 
ATOM     11  C   UNL     1      47.337  20.806  20.219  0.00  0.00    -0.034 A 
ATOM     12  C   UNL     1      46.744  21.890  21.070  0.00  0.00    +0.083 C 
ATOM     13  C   UNL     1      45.333  22.320  20.674  0.00  0.00    +0.048 C 
ATOM     14  C   UNL     1      44.861  21.551  19.467  0.00  0.00    +0.021 C 
ATOM     15  C   UNL     1      43.415  21.571  19.124  0.00  0.00    -0.163 A 
ATOM     16  C   UNL     1      42.467  22.570  19.142  0.00  0.00    +0.091 A 
ATOM     17  C   UNL     1      41.181  22.236  18.735  0.00  0.00    -0.038 A 
ATOM     18  C   UNL     1      40.864  20.950  18.330  0.00  0.00    +0.136 A 
ATOM     21  C   UNL     1      41.820  19.915  18.324  0.00  0.00    -0.017 A 
ATOM     22  C   UNL     1      43.108  20.244  18.728  0.00  0.00    +0.113 A 
ATOM     23  O   UNL     1      44.207  19.443  18.808  0.00  0.00    -0.286 OA
ATOM     24  C   UNL     1      48.707  20.725  20.057  0.00  0.00    -0.016 A 
ATOM     25  C   UNL     1      45.064  20.030  19.784  0.00  0.00    +0.222 C 
ATOM     26  C   UNL     1      49.275  19.687  19.325  0.00  0.00    +0.156 A 
ATOM     27  O   UNL     1      50.628  19.645  19.208  0.00  0.00    -0.297 OA
ENDROOT
BRANCH   4   5
ATOM      5  O   UNL     1      50.693  16.907  19.586  0.00  0.00    -0.550 OA
ATOM      6  H   UNL     1      49.861  16.784  20.064  0.00  0.00    +0.380 HD
ENDBRANCH   4   5
BRANCH  18  19
ATOM     19  O   UNL     1      39.593  20.674  17.936  0.00  0.00    -0.497 OA
ATOM     20  H   UNL     1      39.122  21.435  17.570  0.00  0.00    +0.394 HD
ENDBRANCH  18  19
TORSDOF 2
ENDMDL
MODEL 3
REMARK VINA RESULT:      -6.7      3.941      5.077
REMARK  Name = ZINC95486008
REMARK  4 active torsions:
REMARK  status: ('A' for Active; 'I' for Inactive)
REMARK    1  A    between atoms: C1_1  and  C2_2
REMARK    2  A    between atoms: C2_2  and  C21_28
REMARK    3  A    between atoms: C3_3  and  O4_27
REMARK    4  A    between atoms: C19_24  and  O3_26
REMARK                            x       y       z     vdW  Elec       q    Type
REMARK                         _______ _______ _______ _____ _____    ______ ____
ROOT
ATOM      1  C   UNL     1      47.769  11.583  18.121  0.00  0.00    +0.082 C 
ATOM      2  C   UNL     1      47.582  13.098  18.236  0.00  0.00    +0.124 C 
ATOM      3  C   UNL     1      48.891  13.746  18.691  0.00  0.00    +0.041 C 
ATOM      4  C   UNL     1      47.167  13.672  16.875  0.00  0.00    +0.153 C 
ATOM      7  C   UNL     1      47.098  15.196  16.998  0.00  0.00    +0.063 C 
ATOM      8  C   UNL     1      46.316  15.570  18.231  0.00  0.00    -0.159 A 
ATOM      9  C   UNL     1      45.826  16.862  18.345  0.00  0.00    +0.073 A 
ATOM     10  C   UNL     1      45.111  17.229  19.455  0.00  0.00    -0.121 A 
ATOM     11  C   UNL     1      44.850  16.320  20.480  0.00  0.00    -0.034 A 
ATOM     12  C   UNL     1      44.006  16.694  21.663  0.00  0.00    +0.083 C 
ATOM     13  C   UNL     1      44.063  18.169  22.055  0.00  0.00    +0.048 C 
ATOM     14  C   UNL     1      45.005  18.923  21.151  0.00  0.00    +0.021 C 
ATOM     15  C   UNL     1      44.955  20.408  21.143  0.00  0.00    -0.163 A 
ATOM     16  C   UNL     1      44.805  21.341  22.145  0.00  0.00    +0.091 A 
ATOM     17  C   UNL     1      44.816  22.681  21.776  0.00  0.00    -0.038 A 
ATOM     18  C   UNL     1      44.971  23.063  20.454  0.00  0.00    +0.136 A 
ATOM     21  C   UNL     1      45.108  22.119  19.417  0.00  0.00    -0.017 A 
ATOM     22  C   UNL     1      45.098  20.778  19.782  0.00  0.00    +0.113 A 
ATOM     23  O   UNL     1      45.218  19.678  18.986  0.00  0.00    -0.286 OA
ATOM     24  C   UNL     1      45.357  15.039  20.369  0.00  0.00    -0.016 A 
ATOM     25  C   UNL     1      44.578  18.609  19.678  0.00  0.00    +0.222 C 
ATOM     26  C   UNL     1      46.086  14.660  19.247  0.00  0.00    +0.156 A 
ATOM     27  O   UNL     1      46.549  13.384  19.180  0.00  0.00    -0.297 OA
ENDROOT
BRANCH   4   5
ATOM      5  O   UNL     1      45.885  13.159  16.506  0.00  0.00    -0.550 OA
ATOM      6  H   UNL     1      45.269  13.832  16.185  0.00  0.00    +0.380 HD
ENDBRANCH   4   5
BRANCH  18  19
ATOM     19  O   UNL     1      44.982  24.386  20.144  0.00  0.00    -0.497 OA
ATOM     20  H   UNL     1      45.645  24.630  19.485  0.00  0.00    +0.394 HD
ENDBRANCH  18  19
TORSDOF 2
ENDMDL
MODEL 4
REMARK VINA RESULT:      -6.4      3.097      4.472
REMARK  Name = ZINC95486008
REMARK  4 active torsions:
REMARK  status: ('A' for Active; 'I' for Inactive)
REMARK    1  A    between atoms: C1_1  and  C2_2
REMARK    2  A    between atoms: C2_2  and  C21_28
REMARK    3  A    between atoms: C3_3  and  O4_27
REMARK    4  A    between atoms: C19_24  and  O3_26
REMARK                            x       y       z     vdW  Elec       q    Type
REMARK                         _______ _______ _______ _____ _____    ______ ____
ROOT
ATOM      1  C   UNL     1      49.055  13.186  21.271  0.00  0.00    +0.082 C 
ATOM      2  C   UNL     1      47.931  14.101  20.780  0.00  0.00    +0.124 C 
ATOM      3  C   UNL     1      48.127  14.404  19.293  0.00  0.00    +0.041 C 
ATOM      4  C   UNL     1      46.575  13.414  20.993  0.00  0.00    +0.153 C 
ATOM      7  C   UNL     1      45.487  14.305  20.390  0.00  0.00    +0.063 C 
ATOM      8  C   UNL     1      45.679  15.725  20.853  0.00  0.00    -0.159 A 
ATOM      9  C   UNL     1      44.625  16.618  20.730  0.00  0.00    +0.073 A 
ATOM     10  C   UNL     1      44.773  17.915  21.144  0.00  0.00    -0.121 A 
ATOM     11  C   UNL     1      45.969  18.364  21.705  0.00  0.00    -0.034 A 
ATOM     12  C   UNL     1      46.112  19.763  22.228  0.00  0.00    +0.083 C 
ATOM     13  C   UNL     1      45.257  20.808  21.515  0.00  0.00    +0.048 C 
ATOM     14  C   UNL     1      44.464  20.176  20.401  0.00  0.00    +0.021 C 
ATOM     15  C   UNL     1      43.333  20.935  19.806  0.00  0.00    -0.163 A 
ATOM     16  C   UNL     1      43.173  22.263  19.474  0.00  0.00    +0.091 A 
ATOM     17  C   UNL     1      41.960  22.637  18.910  0.00  0.00    -0.038 A 
ATOM     18  C   UNL     1      40.951  21.715  18.690  0.00  0.00    +0.136 A 
ATOM     21  C   UNL     1      41.095  20.357  19.041  0.00  0.00    -0.017 A 
ATOM     22  C   UNL     1      42.307  19.977  19.604  0.00  0.00    +0.113 A 
ATOM     23  O   UNL     1      42.702  18.742  20.021  0.00  0.00    -0.286 OA
ATOM     24  C   UNL     1      47.021  17.475  21.809  0.00  0.00    -0.016 A 
ATOM     25  C   UNL     1      43.703  18.953  21.015  0.00  0.00    +0.222 C 
ATOM     26  C   UNL     1      46.881  16.157  21.388  0.00  0.00    +0.156 A 
ATOM     27  O   UNL     1      47.941  15.319  21.525  0.00  0.00    -0.297 OA
ENDROOT
BRANCH   4   5
ATOM      5  O   UNL     1      46.338  13.240  22.391  0.00  0.00    -0.550 OA
ATOM      6  H   UNL     1      46.980  12.667  22.831  0.00  0.00    +0.380 HD
ENDBRANCH   4   5
BRANCH  18  19
ATOM     19  O   UNL     1      39.785  22.130  18.130  0.00  0.00    -0.497 OA
ATOM     20  H   UNL     1      39.099  22.356  18.773  0.00  0.00    +0.394 HD
ENDBRANCH  18  19
TORSDOF 2
ENDMDL
MODEL 5
REMARK VINA RESULT:      -6.2      1.854      2.284
REMARK  Name = ZINC95486008
REMARK  4 active torsions:
REMARK  status: ('A' for Active; 'I' for Inactive)
REMARK    1  A    between atoms: C1_1  and  C2_2
REMARK    2  A    between atoms: C2_2  and  C21_28
REMARK    3  A    between atoms: C3_3  and  O4_27
REMARK    4  A    between atoms: C19_24  and  O3_26
REMARK                            x       y       z     vdW  Elec       q    Type
REMARK                         _______ _______ _______ _____ _____    ______ ____
ROOT
ATOM      1  C   UNL     1      53.546  16.650  19.132  0.00  0.00    +0.082 C 
ATOM      2  C   UNL     1      52.182  17.344  19.164  0.00  0.00    +0.124 C 
ATOM      3  C   UNL     1      52.106  18.276  20.376  0.00  0.00    +0.041 C 
ATOM      4  C   UNL     1      51.984  18.154  17.876  0.00  0.00    +0.153 C 
ATOM      7  C   UNL     1      50.665  18.921  17.990  0.00  0.00    +0.063 C 
ATOM      8  C   UNL     1      49.576  17.990  18.456  0.00  0.00    -0.159 A 
ATOM      9  C   UNL     1      48.253  18.371  18.286  0.00  0.00    +0.073 A 
ATOM     10  C   UNL     1      47.242  17.543  18.699  0.00  0.00    -0.121 A 
ATOM     11  C   UNL     1      47.514  16.306  19.285  0.00  0.00    -0.034 A 
ATOM     12  C   UNL     1      46.412  15.364  19.672  0.00  0.00    +0.083 C 
ATOM     13  C   UNL     1      45.101  16.036  20.072  0.00  0.00    +0.048 C 
ATOM     14  C   UNL     1      45.231  17.536  20.008  0.00  0.00    +0.021 C 
ATOM     15  C   UNL     1      43.996  18.364  20.031  0.00  0.00    -0.163 A 
ATOM     16  C   UNL     1      42.823  18.267  20.746  0.00  0.00    +0.091 A 
ATOM     17  C   UNL     1      41.860  19.244  20.524  0.00  0.00    -0.038 A 
ATOM     18  C   UNL     1      42.070  20.273  19.622  0.00  0.00    +0.136 A 
ATOM     21  C   UNL     1      43.259  20.374  18.872  0.00  0.00    -0.017 A 
ATOM     22  C   UNL     1      44.225  19.400  19.090  0.00  0.00    +0.113 A 
ATOM     23  O   UNL     1      45.451  19.271  18.509  0.00  0.00    -0.286 OA
ATOM     24  C   UNL     1      48.834  15.941  19.469  0.00  0.00    -0.016 A 
ATOM     25  C   UNL     1      45.791  17.889  18.589  0.00  0.00    +0.222 C 
ATOM     26  C   UNL     1      49.866  16.777  19.054  0.00  0.00    +0.156 A 
ATOM     27  O   UNL     1      51.146  16.365  19.245  0.00  0.00    -0.297 OA
ENDROOT
BRANCH   4   5
ATOM      5  O   UNL     1      51.933  17.271  16.755  0.00  0.00    -0.550 OA
ATOM      6  H   UNL     1      51.178  17.421  16.169  0.00  0.00    +0.380 HD
ENDBRANCH   4   5
BRANCH  18  19
ATOM     19  O   UNL     1      41.099  21.207  19.445  0.00  0.00    -0.497 OA
ATOM     20  H   UNL     1      40.614  21.118  18.613  0.00  0.00    +0.394 HD
ENDBRANCH  18  19
TORSDOF 2
ENDMDL
MODEL 6
REMARK VINA RESULT:      -6.1      4.578      6.193
REMARK  Name = ZINC95486008
REMARK  4 active torsions:
REMARK  status: ('A' for Active; 'I' for Inactive)
REMARK    1  A    between atoms: C1_1  and  C2_2
REMARK    2  A    between atoms: C2_2  and  C21_28
REMARK    3  A    between atoms: C3_3  and  O4_27
REMARK    4  A    between atoms: C19_24  and  O3_26
REMARK                            x       y       z     vdW  Elec       q    Type
REMARK                         _______ _______ _______ _____ _____    ______ ____
ROOT
ATOM      1  C   UNL     1      49.272  11.025  14.906  0.00  0.00    +0.082 C 
ATOM      2  C   UNL     1      48.385  12.170  15.399  0.00  0.00    +0.124 C 
ATOM      3  C   UNL     1      47.718  12.857  14.205  0.00  0.00    +0.041 C 
ATOM      4  C   UNL     1      47.309  11.619  16.345  0.00  0.00    +0.153 C 
ATOM      7  C   UNL     1      46.374  12.769  16.729  0.00  0.00    +0.063 C 
ATOM      8  C   UNL     1      47.188  13.966  17.148  0.00  0.00    -0.159 A 
ATOM      9  C   UNL     1      46.568  14.977  17.867  0.00  0.00    +0.073 A 
ATOM     10  C   UNL     1      47.284  16.076  18.261  0.00  0.00    -0.121 A 
ATOM     11  C   UNL     1      48.641  16.200  17.963  0.00  0.00    -0.034 A 
ATOM     12  C   UNL     1      49.448  17.366  18.456  0.00  0.00    +0.083 C 
ATOM     13  C   UNL     1      48.664  18.665  18.627  0.00  0.00    +0.048 C 
ATOM     14  C   UNL     1      47.225  18.475  18.224  0.00  0.00    +0.021 C 
ATOM     15  C   UNL     1      46.227  19.502  18.623  0.00  0.00    -0.163 A 
ATOM     16  C   UNL     1      46.271  20.878  18.665  0.00  0.00    +0.091 A 
ATOM     17  C   UNL     1      45.125  21.540  19.087  0.00  0.00    -0.038 A 
ATOM     18  C   UNL     1      43.984  20.845  19.452  0.00  0.00    +0.136 A 
ATOM     21  C   UNL     1      43.931  19.437  19.429  0.00  0.00    -0.017 A 
ATOM     22  C   UNL     1      45.074  18.771  19.007  0.00  0.00    +0.113 A 
ATOM     23  O   UNL     1      45.283  17.430  18.888  0.00  0.00    -0.286 OA
ATOM     24  C   UNL     1      49.249  15.198  17.231  0.00  0.00    -0.016 A 
ATOM     25  C   UNL     1      46.689  17.229  19.006  0.00  0.00    +0.222 C 
ATOM     26  C   UNL     1      48.528  14.081  16.824  0.00  0.00    +0.156 A 
ATOM     27  O   UNL     1      49.176  13.117  16.118  0.00  0.00    -0.297 OA
ENDROOT
BRANCH   4   5
ATOM      5  O   UNL     1      47.927  11.087  17.518  0.00  0.00    -0.550 OA
ATOM      6  H   UNL     1      47.316  10.626  18.110  0.00  0.00    +0.380 HD
ENDBRANCH   4   5
BRANCH  18  19
ATOM     19  O   UNL     1      42.886  21.539  19.852  0.00  0.00    -0.497 OA
ATOM     20  H   UNL     1      42.395  21.117  20.570  0.00  0.00    +0.394 HD
ENDBRANCH  18  19
TORSDOF 2
ENDMDL
MODEL 7
REMARK VINA RESULT:      -6.1      4.168      7.940
REMARK  Name = ZINC95486008
REMARK  4 active torsions:
REMARK  status: ('A' for Active; 'I' for Inactive)
REMARK    1  A    between atoms: C1_1  and  C2_2
REMARK    2  A    between atoms: C2_2  and  C21_28
REMARK    3  A    between atoms: C3_3  and  O4_27
REMARK    4  A    between atoms: C19_24  and  O3_26
REMARK                            x       y       z     vdW  Elec       q    Type
REMARK                         _______ _______ _______ _____ _____    ______ ____
ROOT
ATOM      1  C   UNL     1      46.112  11.423  16.680  0.00  0.00    +0.082 C 
ATOM      2  C   UNL     1      47.136  12.517  16.984  0.00  0.00    +0.124 C 
ATOM      3  C   UNL     1      47.978  12.112  18.197  0.00  0.00    +0.041 C 
ATOM      4  C   UNL     1      48.049  12.724  15.768  0.00  0.00    +0.153 C 
ATOM      7  C   UNL     1      49.128  13.741  16.146  0.00  0.00    +0.063 C 
ATOM      8  C   UNL     1      48.490  14.936  16.806  0.00  0.00    -0.159 A 
ATOM      9  C   UNL     1      49.216  16.114  16.901  0.00  0.00    +0.073 A 
ATOM     10  C   UNL     1      48.659  17.216  17.495  0.00  0.00    -0.121 A 
ATOM     11  C   UNL     1      47.361  17.186  18.004  0.00  0.00    -0.034 A 
ATOM     12  C   UNL     1      46.719  18.410  18.589  0.00  0.00    +0.083 C 
ATOM     13  C   UNL     1      47.687  19.393  19.244  0.00  0.00    +0.048 C 
ATOM     14  C   UNL     1      49.101  18.876  19.171  0.00  0.00    +0.021 C 
ATOM     15  C   UNL     1      50.222  19.814  19.444  0.00  0.00    -0.163 A 
ATOM     16  C   UNL     1      50.393  20.816  20.373  0.00  0.00    +0.091 A 
ATOM     17  C   UNL     1      51.601  21.503  20.354  0.00  0.00    -0.038 A 
ATOM     18  C   UNL     1      52.593  21.193  19.438  0.00  0.00    +0.136 A 
ATOM     21  C   UNL     1      52.423  20.181  18.471  0.00  0.00    -0.017 A 
ATOM     22  C   UNL     1      51.217  19.491  18.487  0.00  0.00    +0.113 A 
ATOM     23  O   UNL     1      50.806  18.477  17.676  0.00  0.00    -0.286 OA
ATOM     24  C   UNL     1      46.650  16.003  17.923  0.00  0.00    -0.016 A 
ATOM     25  C   UNL     1      49.381  18.514  17.674  0.00  0.00    +0.222 C 
ATOM     26  C   UNL     1      47.208  14.880  17.323  0.00  0.00    +0.156 A 
ATOM     27  O   UNL     1      46.462  13.746  17.256  0.00  0.00    -0.297 OA
ENDROOT
BRANCH   4   5
ATOM      5  O   UNL     1      47.282  13.219  14.669  0.00  0.00    -0.550 OA
ATOM      6  H   UNL     1      46.408  13.551  14.917  0.00  0.00    +0.380 HD
ENDBRANCH   4   5
BRANCH  18  19
ATOM     19  O   UNL     1      53.759  21.890  19.463  0.00  0.00    -0.497 OA
ATOM     20  H   UNL     1      53.969  22.272  20.326  0.00  0.00    +0.394 HD
ENDBRANCH  18  19
TORSDOF 2
ENDMDL
MODEL 8
REMARK VINA RESULT:      -6.1      4.352      7.458
REMARK  Name = ZINC95486008
REMARK  4 active torsions:
REMARK  status: ('A' for Active; 'I' for Inactive)
REMARK    1  A    between atoms: C1_1  and  C2_2
REMARK    2  A    between atoms: C2_2  and  C21_28
REMARK    3  A    between atoms: C3_3  and  O4_27
REMARK    4  A    between atoms: C19_24  and  O3_26
REMARK                            x       y       z     vdW  Elec       q    Type
REMARK                         _______ _______ _______ _____ _____    ______ ____
ROOT
ATOM      1  C   UNL     1      43.318  21.446  20.413  0.00  0.00    +0.082 C 
ATOM      2  C   UNL     1      43.912  20.332  19.548  0.00  0.00    +0.124 C 
ATOM      3  C   UNL     1      42.982  20.045  18.367  0.00  0.00    +0.041 C 
ATOM      4  C   UNL     1      45.290  20.762  19.028  0.00  0.00    +0.153 C 
ATOM      7  C   UNL     1      45.805  19.676  18.081  0.00  0.00    +0.063 C 
ATOM      8  C   UNL     1      45.643  18.323  18.724  0.00  0.00    -0.159 A 
ATOM      9  C   UNL     1      46.357  17.249  18.212  0.00  0.00    +0.073 A 
ATOM     10  C   UNL     1      46.230  16.008  18.778  0.00  0.00    -0.121 A 
ATOM     11  C   UNL     1      45.397  15.797  19.878  0.00  0.00    -0.034 A 
ATOM     12  C   UNL     1      45.309  14.457  20.548  0.00  0.00    +0.083 C 
ATOM     13  C   UNL     1      45.546  13.261  19.629  0.00  0.00    +0.048 C 
ATOM     14  C   UNL     1      45.792  13.717  18.214  0.00  0.00    +0.021 C 
ATOM     15  C   UNL     1      46.368  12.753  17.240  0.00  0.00    -0.163 A 
ATOM     16  C   UNL     1      46.142  11.414  17.011  0.00  0.00    +0.091 A 
ATOM     17  C   UNL     1      46.862  10.813  15.985  0.00  0.00    -0.038 A 
ATOM     18  C   UNL     1      47.770  11.530  15.224  0.00  0.00    +0.136 A 
ATOM     21  C   UNL     1      48.022  12.897  15.459  0.00  0.00    -0.017 A 
ATOM     22  C   UNL     1      47.304  13.502  16.483  0.00  0.00    +0.113 A 
ATOM     23  O   UNL     1      47.352  14.796  16.907  0.00  0.00    -0.286 OA
ATOM     24  C   UNL     1      44.674  16.866  20.371  0.00  0.00    -0.016 A 
ATOM     25  C   UNL     1      46.932  14.790  18.270  0.00  0.00    +0.222 C 
ATOM     26  C   UNL     1      44.796  18.128  19.800  0.00  0.00    +0.156 A 
ATOM     27  O   UNL     1      44.074  19.150  20.332  0.00  0.00    -0.297 OA
ENDROOT
BRANCH   4   5
ATOM      5  O   UNL     1      46.193  20.912  20.125  0.00  0.00    -0.550 OA
ATOM      6  H   UNL     1      46.995  20.375  20.052  0.00  0.00    +0.380 HD
ENDBRANCH   4   5
BRANCH  18  19
ATOM     19  O   UNL     1      48.445  10.898  14.228  0.00  0.00    -0.497 OA
ATOM     20  H   UNL     1      48.432   9.934  14.296  0.00  0.00    +0.394 HD
ENDBRANCH  18  19
TORSDOF 2
ENDMDL
MODEL 9
REMARK VINA RESULT:      -6.0      3.779      6.984
REMARK  Name = ZINC95486008
REMARK  4 active torsions:
REMARK  status: ('A' for Active; 'I' for Inactive)
REMARK    1  A    between atoms: C1_1  and  C2_2
REMARK    2  A    between atoms: C2_2  and  C21_28
REMARK    3  A    between atoms: C3_3  and  O4_27
REMARK    4  A    between atoms: C19_24  and  O3_26
REMARK                            x       y       z     vdW  Elec       q    Type
REMARK                         _______ _______ _______ _____ _____    ______ ____
ROOT
ATOM      1  C   UNL     1      44.796  23.230  21.640  0.00  0.00    +0.082 C 
ATOM      2  C   UNL     1      44.938  21.866  20.961  0.00  0.00    +0.124 C 
ATOM      3  C   UNL     1      44.540  20.759  21.940  0.00  0.00    +0.041 C 
ATOM      4  C   UNL     1      44.034  21.809  19.722  0.00  0.00    +0.153 C 
ATOM      7  C   UNL     1      44.115  20.399  19.133  0.00  0.00    +0.063 C 
ATOM      8  C   UNL     1      45.558  19.979  19.019  0.00  0.00    -0.159 A 
ATOM      9  C   UNL     1      45.880  18.911  18.196  0.00  0.00    +0.073 A 
ATOM     10  C   UNL     1      47.184  18.508  18.073  0.00  0.00    -0.121 A 
ATOM     11  C   UNL     1      48.210  19.162  18.755  0.00  0.00    -0.034 A 
ATOM     12  C   UNL     1      49.648  18.774  18.568  0.00  0.00    +0.083 C 
ATOM     13  C   UNL     1      49.878  17.302  18.233  0.00  0.00    +0.048 C 
ATOM     14  C   UNL     1      48.571  16.554  18.194  0.00  0.00    +0.021 C 
ATOM     15  C   UNL     1      48.534  15.206  17.568  0.00  0.00    -0.163 A 
ATOM     16  C   UNL     1      49.406  14.140  17.600  0.00  0.00    +0.091 A 
ATOM     17  C   UNL     1      49.044  13.000  16.893  0.00  0.00    -0.038 A 
ATOM     18  C   UNL     1      47.856  12.937  16.185  0.00  0.00    +0.136 A 
ATOM     21  C   UNL     1      46.963  14.026  16.130  0.00  0.00    -0.017 A 
ATOM     22  C   UNL     1      47.321  15.169  16.836  0.00  0.00    +0.113 A 
ATOM     23  O   UNL     1      46.642  16.345  16.953  0.00  0.00    -0.286 OA
ATOM     24  C   UNL     1      47.880  20.214  19.589  0.00  0.00    -0.016 A 
ATOM     25  C   UNL     1      47.617  17.345  17.238  0.00  0.00    +0.222 C 
ATOM     26  C   UNL     1      46.559  20.627  19.721  0.00  0.00    +0.156 A 
ATOM     27  O   UNL     1      46.289  21.675  20.542  0.00  0.00    -0.297 OA
ENDROOT
BRANCH   4   5
ATOM      5  O   UNL     1      44.482  22.762  18.756  0.00  0.00    -0.550 OA
ATOM      6  H   UNL     1      44.445  23.679  19.060  0.00  0.00    +0.380 HD
ENDBRANCH   4   5
BRANCH  18  19
ATOM     19  O   UNL     1      47.543  11.797  15.515  0.00  0.00    -0.497 OA
ATOM     20  H   UNL     1      48.288  11.405  15.037  0.00  0.00    +0.394 HD
ENDBRANCH  18  19
TORSDOF 2
ENDMDL
