MODEL 1
REMARK VINA RESULT:      -7.1      0.000      0.000
REMARK  Name = ZINC95486051
REMARK  12 active torsions:
REMARK  status: ('A' for Active; 'I' for Inactive)
REMARK    1  A    between atoms: C1_1  and  C2_2
REMARK    2  A    between atoms: C2_2  and  C24_31
REMARK    3  A    between atoms: C3_3  and  C4_4
REMARK    4  A    between atoms: C4_4  and  C5_5
REMARK    5  A    between atoms: C6_6  and  C15_17
REMARK    6  A    between atoms: C8_8  and  C11_13
REMARK    7  A    between atoms: C9_9  and  O2_12
REMARK    8  A    between atoms: C10_10  and  O1_11
REMARK    9  A    between atoms: C12_14  and  C13_15
REMARK   10  A    between atoms: C12_14  and  C14_16
REMARK   11  A    between atoms: C19_23  and  O6_30
REMARK   12  A    between atoms: C21_25  and  O5_29
REMARK                            x       y       z     vdW  Elec       q    Type
REMARK                         _______ _______ _______ _____ _____    ______ ____
ROOT
ATOM      6  C   UNL     1      45.756  20.799  20.262  0.00  0.00    -0.072 A 
ATOM      7  C   UNL     1      45.112  19.829  19.515  0.00  0.00    -0.085 A 
ATOM     23  C   UNL     1      43.858  20.071  18.994  0.00  0.00    +0.067 A 
ATOM     24  C   UNL     1      43.232  21.299  19.221  0.00  0.00    -0.063 A 
ATOM     29  C   UNL     1      43.883  22.278  19.978  0.00  0.00    +0.101 A 
ATOM     32  C   UNL     1      45.145  22.020  20.501  0.00  0.00    +0.091 A 
ENDROOT
BRANCH   7   8
ATOM      8  C   UNL     1      45.784  18.503  19.267  0.00  0.00    +0.242 C 
ATOM      9  C   UNL     1      45.866  18.244  17.756  0.00  0.00    +0.038 C 
ATOM     10  C   UNL     1      46.517  16.886  17.567  0.00  0.00    +0.404 C 
ATOM     11  C   UNL     1      46.114  15.829  18.501  0.00  0.00    -0.293 A 
ATOM     12  C   UNL     1      46.458  14.490  18.260  0.00  0.00    +0.223 A 
ATOM     15  C   UNL     1      46.075  13.515  19.163  0.00  0.00    -0.074 A 
ATOM     16  C   UNL     1      45.355  13.862  20.299  0.00  0.00    +0.199 A 
ATOM     19  C   UNL     1      45.008  15.186  20.541  0.00  0.00    -0.052 A 
ATOM     20  C   UNL     1      45.378  16.176  19.650  0.00  0.00    +0.215 A 
ATOM     21  O   UNL     1      47.330  16.685  16.688  0.00  0.00    -0.430 OA
ATOM     22  O   UNL     1      45.027  17.463  19.885  0.00  0.00    -0.297 OA
BRANCH  12  13
ATOM     13  O   UNL     1      47.157  14.155  17.148  0.00  0.00    -0.479 OA
ATOM     14  H   UNL     1      46.695  14.345  16.320  0.00  0.00    +0.404 HD
ENDBRANCH  12  13
BRANCH  16  17
ATOM     17  O   UNL     1      44.987  12.900  21.182  0.00  0.00    -0.490 OA
ATOM     18  H   UNL     1      44.583  12.123  20.772  0.00  0.00    +0.403 HD
ENDBRANCH  16  17
ENDBRANCH   7   8
BRANCH  24  25
ATOM     25  C   UNL     1      41.889  21.561  18.665  0.00  0.00    -0.010 C 
ATOM     26  C   UNL     1      40.835  20.917  19.148  0.00  0.00    -0.104 C 
ATOM     27  C   UNL     1      39.449  21.286  18.683  0.00  0.00    +0.084 C 
ATOM     28  C   UNL     1      41.021  19.818  20.162  0.00  0.00    +0.077 C 
ENDBRANCH  24  25
BRANCH  29  30
ATOM     30  O   UNL     1      43.282  23.476  20.204  0.00  0.00    -0.485 OA
ATOM     31  H   UNL     1      43.712  24.010  20.886  0.00  0.00    +0.393 HD
ENDBRANCH  29  30
BRANCH  32  33
ATOM     33  O   UNL     1      45.781  22.967  21.240  0.00  0.00    -0.482 OA
ATOM     34  H   UNL     1      46.259  23.622  20.714  0.00  0.00    +0.389 HD
ENDBRANCH  32  33
BRANCH   6   5
ATOM      5  C   UNL     1      47.127  20.525  20.826  0.00  0.00    +0.111 C 
BRANCH   5   4
ATOM      1  C   UNL     1      49.320  18.938  20.036  0.00  0.00    +0.076 C 
ATOM      2  C   UNL     1      49.161  20.333  19.489  0.00  0.00    -0.112 C 
ATOM      3  C   UNL     1      50.137  20.856  18.468  0.00  0.00    +0.074 C 
ATOM      4  C   UNL     1      48.174  21.089  19.900  0.00  0.00    -0.062 C 
ENDBRANCH   5   4
ENDBRANCH   6   5
TORSDOF 8
ENDMDL
MODEL 2
REMARK VINA RESULT:      -6.6      2.271      6.644
REMARK  Name = ZINC95486051
REMARK  12 active torsions:
REMARK  status: ('A' for Active; 'I' for Inactive)
REMARK    1  A    between atoms: C1_1  and  C2_2
REMARK    2  A    between atoms: C2_2  and  C24_31
REMARK    3  A    between atoms: C3_3  and  C4_4
REMARK    4  A    between atoms: C4_4  and  C5_5
REMARK    5  A    between atoms: C6_6  and  C15_17
REMARK    6  A    between atoms: C8_8  and  C11_13
REMARK    7  A    between atoms: C9_9  and  O2_12
REMARK    8  A    between atoms: C10_10  and  O1_11
REMARK    9  A    between atoms: C12_14  and  C13_15
REMARK   10  A    between atoms: C12_14  and  C14_16
REMARK   11  A    between atoms: C19_23  and  O6_30
REMARK   12  A    between atoms: C21_25  and  O5_29
REMARK                            x       y       z     vdW  Elec       q    Type
REMARK                         _______ _______ _______ _____ _____    ______ ____
ROOT
ATOM      6  C   UNL     1      47.210  19.231  19.147  0.00  0.00    -0.072 A 
ATOM      7  C   UNL     1      46.024  18.530  19.021  0.00  0.00    -0.085 A 
ATOM     23  C   UNL     1      45.971  17.382  18.259  0.00  0.00    +0.067 A 
ATOM     24  C   UNL     1      47.120  16.922  17.610  0.00  0.00    -0.063 A 
ATOM     29  C   UNL     1      48.318  17.631  17.737  0.00  0.00    +0.101 A 
ATOM     32  C   UNL     1      48.355  18.789  18.504  0.00  0.00    +0.091 A 
ENDROOT
BRANCH   7   8
ATOM      8  C   UNL     1      44.783  19.024  19.720  0.00  0.00    +0.242 C 
ATOM      9  C   UNL     1      44.136  17.866  20.494  0.00  0.00    +0.038 C 
ATOM     10  C   UNL     1      42.878  18.409  21.147  0.00  0.00    +0.404 C 
ATOM     11  C   UNL     1      42.071  19.336  20.346  0.00  0.00    -0.293 A 
ATOM     12  C   UNL     1      40.775  19.692  20.751  0.00  0.00    +0.223 A 
ATOM     15  C   UNL     1      40.039  20.577  19.984  0.00  0.00    -0.074 A 
ATOM     16  C   UNL     1      40.583  21.107  18.820  0.00  0.00    +0.199 A 
ATOM     19  C   UNL     1      41.863  20.755  18.411  0.00  0.00    -0.052 A 
ATOM     20  C   UNL     1      42.615  19.869  19.162  0.00  0.00    +0.215 A 
ATOM     21  O   UNL     1      42.557  18.093  22.274  0.00  0.00    -0.430 OA
ATOM     22  O   UNL     1      43.858  19.521  18.753  0.00  0.00    -0.297 OA
BRANCH  12  13
ATOM     13  O   UNL     1      40.247  19.170  21.886  0.00  0.00    -0.479 OA
ATOM     14  H   UNL     1      40.908  18.863  22.522  0.00  0.00    +0.404 HD
ENDBRANCH  12  13
BRANCH  16  17
ATOM     17  O   UNL     1      39.856  21.978  18.075  0.00  0.00    -0.490 OA
ATOM     18  H   UNL     1      39.938  22.899  18.356  0.00  0.00    +0.403 HD
ENDBRANCH  16  17
ENDBRANCH   7   8
BRANCH  24  25
ATOM     25  C   UNL     1      47.067  15.692  16.793  0.00  0.00    -0.010 C 
ATOM     26  C   UNL     1      47.137  14.504  17.378  0.00  0.00    -0.104 C 
ATOM     27  C   UNL     1      46.939  13.250  16.565  0.00  0.00    +0.084 C 
ATOM     28  C   UNL     1      47.412  14.406  18.857  0.00  0.00    +0.077 C 
ENDBRANCH  24  25
BRANCH  29  30
ATOM     30  O   UNL     1      49.440  17.190  17.108  0.00  0.00    -0.485 OA
ATOM     31  H   UNL     1      50.119  17.869  16.993  0.00  0.00    +0.393 HD
ENDBRANCH  29  30
BRANCH  32  33
ATOM     33  O   UNL     1      49.517  19.485  18.628  0.00  0.00    -0.482 OA
ATOM     34  H   UNL     1      50.303  18.988  18.364  0.00  0.00    +0.389 HD
ENDBRANCH  32  33
BRANCH   6   5
ATOM      5  C   UNL     1      47.256  20.485  19.982  0.00  0.00    +0.111 C 
BRANCH   5   4
ATOM      1  C   UNL     1      45.544  22.010  21.624  0.00  0.00    +0.076 C 
ATOM      2  C   UNL     1      45.602  22.274  20.141  0.00  0.00    -0.112 C 
ATOM      3  C   UNL     1      44.795  23.398  19.545  0.00  0.00    +0.074 C 
ATOM      4  C   UNL     1      46.354  21.528  19.372  0.00  0.00    -0.062 C 
ENDBRANCH   5   4
ENDBRANCH   6   5
TORSDOF 8
ENDMDL
MODEL 3
REMARK VINA RESULT:      -6.2      2.602      7.109
REMARK  Name = ZINC95486051
REMARK  12 active torsions:
REMARK  status: ('A' for Active; 'I' for Inactive)
REMARK    1  A    between atoms: C1_1  and  C2_2
REMARK    2  A    between atoms: C2_2  and  C24_31
REMARK    3  A    between atoms: C3_3  and  C4_4
REMARK    4  A    between atoms: C4_4  and  C5_5
REMARK    5  A    between atoms: C6_6  and  C15_17
REMARK    6  A    between atoms: C8_8  and  C11_13
REMARK    7  A    between atoms: C9_9  and  O2_12
REMARK    8  A    between atoms: C10_10  and  O1_11
REMARK    9  A    between atoms: C12_14  and  C13_15
REMARK   10  A    between atoms: C12_14  and  C14_16
REMARK   11  A    between atoms: C19_23  and  O6_30
REMARK   12  A    between atoms: C21_25  and  O5_29
REMARK                            x       y       z     vdW  Elec       q    Type
REMARK                         _______ _______ _______ _____ _____    ______ ____
ROOT
ATOM      6  C   UNL     1      49.238  17.368  18.395  0.00  0.00    -0.072 A 
ATOM      7  C   UNL     1      47.885  17.322  18.681  0.00  0.00    -0.085 A 
ATOM     23  C   UNL     1      47.097  16.321  18.153  0.00  0.00    +0.067 A 
ATOM     24  C   UNL     1      47.662  15.350  17.323  0.00  0.00    -0.063 A 
ATOM     29  C   UNL     1      49.029  15.399  17.033  0.00  0.00    +0.101 A 
ATOM     32  C   UNL     1      49.812  16.415  17.569  0.00  0.00    +0.091 A 
ENDROOT
BRANCH   7   8
ATOM      8  C   UNL     1      47.271  18.367  19.576  0.00  0.00    +0.242 C 
ATOM      9  C   UNL     1      46.217  17.712  20.481  0.00  0.00    +0.038 C 
ATOM     10  C   UNL     1      45.609  18.812  21.332  0.00  0.00    +0.404 C 
ATOM     11  C   UNL     1      45.352  20.093  20.664  0.00  0.00    -0.293 A 
ATOM     12  C   UNL     1      44.569  21.080  21.283  0.00  0.00    +0.223 A 
ATOM     15  C   UNL     1      44.352  22.283  20.636  0.00  0.00    -0.074 A 
ATOM     16  C   UNL     1      44.906  22.509  19.382  0.00  0.00    +0.199 A 
ATOM     19  C   UNL     1      45.678  21.535  18.763  0.00  0.00    -0.052 A 
ATOM     20  C   UNL     1      45.906  20.323  19.390  0.00  0.00    +0.215 A 
ATOM     21  O   UNL     1      45.350  18.642  22.505  0.00  0.00    -0.430 OA
ATOM     22  O   UNL     1      46.649  19.372  18.776  0.00  0.00    -0.297 OA
BRANCH  12  13
ATOM     13  O   UNL     1      44.028  20.854  22.505  0.00  0.00    -0.479 OA
ATOM     14  H   UNL     1      43.158  21.258  22.630  0.00  0.00    +0.404 HD
ENDBRANCH  12  13
BRANCH  16  17
ATOM     17  O   UNL     1      44.692  23.694  18.756  0.00  0.00    -0.490 OA
ATOM     18  H   UNL     1      44.774  23.651  17.794  0.00  0.00    +0.403 HD
ENDBRANCH  16  17
ENDBRANCH   7   8
BRANCH  24  25
ATOM     25  C   UNL     1      46.820  14.278  16.755  0.00  0.00    -0.010 C 
ATOM     26  C   UNL     1      46.539  13.202  17.478  0.00  0.00    -0.104 C 
ATOM     27  C   UNL     1      45.565  12.177  16.956  0.00  0.00    +0.084 C 
ATOM     28  C   UNL     1      47.191  13.006  18.823  0.00  0.00    +0.077 C 
ENDBRANCH  24  25
BRANCH  29  30
ATOM     30  O   UNL     1      49.588  14.458  16.226  0.00  0.00    -0.485 OA
ATOM     31  H   UNL     1      49.716  13.600  16.653  0.00  0.00    +0.393 HD
ENDBRANCH  29  30
BRANCH  32  33
ATOM     33  O   UNL     1      51.141  16.470  17.287  0.00  0.00    -0.482 OA
ATOM     34  H   UNL     1      51.344  16.469  16.341  0.00  0.00    +0.389 HD
ENDBRANCH  32  33
BRANCH   6   5
ATOM      5  C   UNL     1      50.091  18.465  18.978  0.00  0.00    +0.111 C 
BRANCH   5   4
ATOM      1  C   UNL     1      52.609  19.538  18.297  0.00  0.00    +0.076 C 
ATOM      2  C   UNL     1      51.360  20.062  17.636  0.00  0.00    -0.112 C 
ATOM      3  C   UNL     1      51.463  21.115  16.563  0.00  0.00    +0.074 C 
ATOM      4  C   UNL     1      50.188  19.604  17.994  0.00  0.00    -0.062 C 
ENDBRANCH   5   4
ENDBRANCH   6   5
TORSDOF 8
ENDMDL
MODEL 4
REMARK VINA RESULT:      -6.1      2.221      3.033
REMARK  Name = ZINC95486051
REMARK  12 active torsions:
REMARK  status: ('A' for Active; 'I' for Inactive)
REMARK    1  A    between atoms: C1_1  and  C2_2
REMARK    2  A    between atoms: C2_2  and  C24_31
REMARK    3  A    between atoms: C3_3  and  C4_4
REMARK    4  A    between atoms: C4_4  and  C5_5
REMARK    5  A    between atoms: C6_6  and  C15_17
REMARK    6  A    between atoms: C8_8  and  C11_13
REMARK    7  A    between atoms: C9_9  and  O2_12
REMARK    8  A    between atoms: C10_10  and  O1_11
REMARK    9  A    between atoms: C12_14  and  C13_15
REMARK   10  A    between atoms: C12_14  and  C14_16
REMARK   11  A    between atoms: C19_23  and  O6_30
REMARK   12  A    between atoms: C21_25  and  O5_29
REMARK                            x       y       z     vdW  Elec       q    Type
REMARK                         _______ _______ _______ _____ _____    ______ ____
ROOT
ATOM      6  C   UNL     1      46.620  20.500  19.665  0.00  0.00    -0.072 A 
ATOM      7  C   UNL     1      46.131  19.235  19.391  0.00  0.00    -0.085 A 
ATOM     23  C   UNL     1      44.948  18.809  19.957  0.00  0.00    +0.067 A 
ATOM     24  C   UNL     1      44.238  19.656  20.812  0.00  0.00    -0.063 A 
ATOM     29  C   UNL     1      44.734  20.934  21.089  0.00  0.00    +0.101 A 
ATOM     32  C   UNL     1      45.930  21.349  20.515  0.00  0.00    +0.091 A 
ENDROOT
BRANCH   7   8
ATOM      8  C   UNL     1      46.894  18.319  18.469  0.00  0.00    +0.242 C 
ATOM      9  C   UNL     1      45.969  17.192  17.987  0.00  0.00    +0.038 C 
ATOM     10  C   UNL     1      46.795  16.284  17.094  0.00  0.00    +0.404 C 
ATOM     11  C   UNL     1      48.170  16.010  17.528  0.00  0.00    -0.293 A 
ATOM     12  C   UNL     1      48.924  14.995  16.920  0.00  0.00    +0.223 A 
ATOM     15  C   UNL     1      50.221  14.764  17.340  0.00  0.00    -0.074 A 
ATOM     16  C   UNL     1      50.770  15.535  18.358  0.00  0.00    +0.199 A 
ATOM     19  C   UNL     1      50.026  16.538  18.968  0.00  0.00    -0.052 A 
ATOM     20  C   UNL     1      48.726  16.783  18.565  0.00  0.00    +0.215 A 
ATOM     21  O   UNL     1      46.343  15.810  16.072  0.00  0.00    -0.430 OA
ATOM     22  O   UNL     1      48.002  17.754  19.170  0.00  0.00    -0.297 OA
BRANCH  12  13
ATOM     13  O   UNL     1      48.384  14.243  15.928  0.00  0.00    -0.479 OA
ATOM     14  H   UNL     1      47.489  13.929  16.116  0.00  0.00    +0.404 HD
ENDBRANCH  12  13
BRANCH  16  17
ATOM     17  O   UNL     1      52.045  15.305  18.762  0.00  0.00    -0.490 OA
ATOM     18  H   UNL     1      52.655  15.099  18.041  0.00  0.00    +0.403 HD
ENDBRANCH  16  17
ENDBRANCH   7   8
BRANCH  24  25
ATOM     25  C   UNL     1      42.971  19.203  21.420  0.00  0.00    -0.010 C 
ATOM     26  C   UNL     1      41.847  19.243  20.718  0.00  0.00    -0.104 C 
ATOM     27  C   UNL     1      40.583  18.648  21.285  0.00  0.00    +0.084 C 
ATOM     28  C   UNL     1      41.833  19.880  19.352  0.00  0.00    +0.077 C 
ENDBRANCH  24  25
BRANCH  29  30
ATOM     30  O   UNL     1      44.050  21.765  21.920  0.00  0.00    -0.485 OA
ATOM     31  H   UNL     1      44.598  22.180  22.600  0.00  0.00    +0.393 HD
ENDBRANCH  29  30
BRANCH  32  33
ATOM     33  O   UNL     1      46.419  22.589  20.784  0.00  0.00    -0.482 OA
ATOM     34  H   UNL     1      46.123  22.954  21.629  0.00  0.00    +0.389 HD
ENDBRANCH  32  33
BRANCH   6   5
ATOM      5  C   UNL     1      47.914  20.956  19.040  0.00  0.00    +0.111 C 
BRANCH   5   4
ATOM      1  C   UNL     1      50.580  20.791  18.133  0.00  0.00    +0.076 C 
ATOM      2  C   UNL     1      50.280  20.756  19.610  0.00  0.00    -0.112 C 
ATOM      3  C   UNL     1      51.410  20.700  20.605  0.00  0.00    +0.074 C 
ATOM      4  C   UNL     1      49.040  20.775  20.027  0.00  0.00    -0.062 C 
ENDBRANCH   5   4
ENDBRANCH   6   5
TORSDOF 8
ENDMDL
MODEL 5
REMARK VINA RESULT:      -6.0      1.718      6.551
REMARK  Name = ZINC95486051
REMARK  12 active torsions:
REMARK  status: ('A' for Active; 'I' for Inactive)
REMARK    1  A    between atoms: C1_1  and  C2_2
REMARK    2  A    between atoms: C2_2  and  C24_31
REMARK    3  A    between atoms: C3_3  and  C4_4
REMARK    4  A    between atoms: C4_4  and  C5_5
REMARK    5  A    between atoms: C6_6  and  C15_17
REMARK    6  A    between atoms: C8_8  and  C11_13
REMARK    7  A    between atoms: C9_9  and  O2_12
REMARK    8  A    between atoms: C10_10  and  O1_11
REMARK    9  A    between atoms: C12_14  and  C13_15
REMARK   10  A    between atoms: C12_14  and  C14_16
REMARK   11  A    between atoms: C19_23  and  O6_30
REMARK   12  A    between atoms: C21_25  and  O5_29
REMARK                            x       y       z     vdW  Elec       q    Type
REMARK                         _______ _______ _______ _____ _____    ______ ____
ROOT
ATOM      6  C   UNL     1      48.162  18.467  18.981  0.00  0.00    -0.072 A 
ATOM      7  C   UNL     1      46.818  18.346  18.676  0.00  0.00    -0.085 A 
ATOM     23  C   UNL     1      46.281  17.111  18.378  0.00  0.00    +0.067 A 
ATOM     24  C   UNL     1      47.094  15.976  18.383  0.00  0.00    -0.063 A 
ATOM     29  C   UNL     1      48.453  16.099  18.690  0.00  0.00    +0.101 A 
ATOM     32  C   UNL     1      48.982  17.350  18.984  0.00  0.00    +0.091 A 
ENDROOT
BRANCH   7   8
ATOM      8  C   UNL     1      45.936  19.569  18.669  0.00  0.00    +0.242 C 
ATOM      9  C   UNL     1      46.159  20.368  19.962  0.00  0.00    +0.038 C 
ATOM     10  C   UNL     1      45.225  21.563  19.918  0.00  0.00    +0.404 C 
ATOM     11  C   UNL     1      43.876  21.324  19.391  0.00  0.00    -0.293 A 
ATOM     12  C   UNL     1      42.867  22.288  19.541  0.00  0.00    +0.223 A 
ATOM     15  C   UNL     1      41.608  22.042  19.025  0.00  0.00    -0.074 A 
ATOM     16  C   UNL     1      41.347  20.848  18.364  0.00  0.00    +0.199 A 
ATOM     19  C   UNL     1      42.341  19.888  18.216  0.00  0.00    -0.052 A 
ATOM     20  C   UNL     1      43.607  20.112  18.727  0.00  0.00    +0.215 A 
ATOM     21  O   UNL     1      45.576  22.662  20.297  0.00  0.00    -0.430 OA
ATOM     22  O   UNL     1      44.568  19.169  18.590  0.00  0.00    -0.297 OA
BRANCH  12  13
ATOM     13  O   UNL     1      43.124  23.450  20.190  0.00  0.00    -0.479 OA
ATOM     14  H   UNL     1      44.066  23.653  20.275  0.00  0.00    +0.404 HD
ENDBRANCH  12  13
BRANCH  16  17
ATOM     17  O   UNL     1      40.110  20.616  17.857  0.00  0.00    -0.490 OA
ATOM     18  H   UNL     1      39.849  21.232  17.159  0.00  0.00    +0.403 HD
ENDBRANCH  16  17
ENDBRANCH   7   8
BRANCH  24  25
ATOM     25  C   UNL     1      46.522  14.652  18.065  0.00  0.00    -0.010 C 
ATOM     26  C   UNL     1      45.692  14.066  18.917  0.00  0.00    -0.104 C 
ATOM     27  C   UNL     1      44.996  12.786  18.531  0.00  0.00    +0.084 C 
ATOM     28  C   UNL     1      45.442  14.681  20.270  0.00  0.00    +0.077 C 
ENDBRANCH  24  25
BRANCH  29  30
ATOM     30  O   UNL     1      49.252  15.000  18.698  0.00  0.00    -0.485 OA
ATOM     31  H   UNL     1      49.904  14.992  19.412  0.00  0.00    +0.393 HD
ENDBRANCH  29  30
BRANCH  32  33
ATOM     33  O   UNL     1      50.303  17.477  19.280  0.00  0.00    -0.482 OA
ATOM     34  H   UNL     1      50.810  16.660  19.177  0.00  0.00    +0.389 HD
ENDBRANCH  32  33
BRANCH   6   5
ATOM      5  C   UNL     1      48.738  19.822  19.305  0.00  0.00    +0.111 C 
BRANCH   5   4
ATOM      1  C   UNL     1      51.311  20.946  19.569  0.00  0.00    +0.076 C 
ATOM      2  C   UNL     1      50.670  20.835  18.209  0.00  0.00    -0.112 C 
ATOM      3  C   UNL     1      51.432  21.265  16.981  0.00  0.00    +0.074 C 
ATOM      4  C   UNL     1      49.454  20.366  18.094  0.00  0.00    -0.062 C 
ENDBRANCH   5   4
ENDBRANCH   6   5
TORSDOF 8
ENDMDL
MODEL 6
REMARK VINA RESULT:      -6.0      1.424      5.394
REMARK  Name = ZINC95486051
REMARK  12 active torsions:
REMARK  status: ('A' for Active; 'I' for Inactive)
REMARK    1  A    between atoms: C1_1  and  C2_2
REMARK    2  A    between atoms: C2_2  and  C24_31
REMARK    3  A    between atoms: C3_3  and  C4_4
REMARK    4  A    between atoms: C4_4  and  C5_5
REMARK    5  A    between atoms: C6_6  and  C15_17
REMARK    6  A    between atoms: C8_8  and  C11_13
REMARK    7  A    between atoms: C9_9  and  O2_12
REMARK    8  A    between atoms: C10_10  and  O1_11
REMARK    9  A    between atoms: C12_14  and  C13_15
REMARK   10  A    between atoms: C12_14  and  C14_16
REMARK   11  A    between atoms: C19_23  and  O6_30
REMARK   12  A    between atoms: C21_25  and  O5_29
REMARK                            x       y       z     vdW  Elec       q    Type
REMARK                         _______ _______ _______ _____ _____    ______ ____
ROOT
ATOM      6  C   UNL     1      45.105  20.393  20.006  0.00  0.00    -0.072 A 
ATOM      7  C   UNL     1      45.962  19.326  20.210  0.00  0.00    -0.085 A 
ATOM     23  C   UNL     1      47.179  19.520  20.828  0.00  0.00    +0.067 A 
ATOM     24  C   UNL     1      47.552  20.798  21.252  0.00  0.00    -0.063 A 
ATOM     29  C   UNL     1      46.686  21.876  21.045  0.00  0.00    +0.101 A 
ATOM     32  C   UNL     1      45.464  21.667  20.416  0.00  0.00    +0.091 A 
ENDROOT
BRANCH   7   8
ATOM      8  C   UNL     1      45.564  17.946  19.754  0.00  0.00    +0.242 C 
ATOM      9  C   UNL     1      45.660  16.969  20.935  0.00  0.00    +0.038 C 
ATOM     10  C   UNL     1      45.283  15.594  20.413  0.00  0.00    +0.404 C 
ATOM     11  C   UNL     1      45.789  15.236  19.083  0.00  0.00    -0.293 A 
ATOM     12  C   UNL     1      45.714  13.913  18.621  0.00  0.00    +0.223 A 
ATOM     15  C   UNL     1      46.187  13.604  17.359  0.00  0.00    -0.074 A 
ATOM     16  C   UNL     1      46.733  14.599  16.557  0.00  0.00    +0.199 A 
ATOM     19  C   UNL     1      46.813  15.909  17.011  0.00  0.00    -0.052 A 
ATOM     20  C   UNL     1      46.349  16.240  18.271  0.00  0.00    +0.215 A 
ATOM     21  O   UNL     1      44.598  14.831  21.062  0.00  0.00    -0.430 OA
ATOM     22  O   UNL     1      46.441  17.517  18.713  0.00  0.00    -0.297 OA
BRANCH  12  13
ATOM     13  O   UNL     1      45.184  12.944  19.408  0.00  0.00    -0.479 OA
ATOM     14  H   UNL     1      45.126  13.184  20.343  0.00  0.00    +0.404 HD
ENDBRANCH  12  13
BRANCH  16  17
ATOM     17  O   UNL     1      47.191  14.288  15.318  0.00  0.00    -0.490 OA
ATOM     18  H   UNL     1      48.122  14.027  15.297  0.00  0.00    +0.403 HD
ENDBRANCH  16  17
ENDBRANCH   7   8
BRANCH  24  25
ATOM     25  C   UNL     1      48.855  21.009  21.914  0.00  0.00    -0.010 C 
ATOM     26  C   UNL     1      49.970  21.021  21.196  0.00  0.00    -0.104 C 
ATOM     27  C   UNL     1      51.282  21.378  21.848  0.00  0.00    +0.084 C 
ATOM     28  C   UNL     1      49.926  20.679  19.729  0.00  0.00    +0.077 C 
ENDBRANCH  24  25
BRANCH  29  30
ATOM     30  O   UNL     1      47.040  23.123  21.454  0.00  0.00    -0.485 OA
ATOM     31  H   UNL     1      46.874  23.292  22.392  0.00  0.00    +0.393 HD
ENDBRANCH  29  30
BRANCH  32  33
ATOM     33  O   UNL     1      44.619  22.712  20.209  0.00  0.00    -0.482 OA
ATOM     34  H   UNL     1      45.051  23.577  20.221  0.00  0.00    +0.389 HD
ENDBRANCH  32  33
BRANCH   6   5
ATOM      5  C   UNL     1      43.777  20.170  19.329  0.00  0.00    +0.111 C 
BRANCH   5   4
ATOM      1  C   UNL     1      41.033  20.118  18.681  0.00  0.00    +0.076 C 
ATOM      2  C   UNL     1      41.501  19.620  20.024  0.00  0.00    -0.112 C 
ATOM      3  C   UNL     1      40.511  19.033  20.996  0.00  0.00    +0.074 C 
ATOM      4  C   UNL     1      42.768  19.697  20.346  0.00  0.00    -0.062 C 
ENDBRANCH   5   4
ENDBRANCH   6   5
TORSDOF 8
ENDMDL
MODEL 7
REMARK VINA RESULT:      -6.0      2.439      6.887
REMARK  Name = ZINC95486051
REMARK  12 active torsions:
REMARK  status: ('A' for Active; 'I' for Inactive)
REMARK    1  A    between atoms: C1_1  and  C2_2
REMARK    2  A    between atoms: C2_2  and  C24_31
REMARK    3  A    between atoms: C3_3  and  C4_4
REMARK    4  A    between atoms: C4_4  and  C5_5
REMARK    5  A    between atoms: C6_6  and  C15_17
REMARK    6  A    between atoms: C8_8  and  C11_13
REMARK    7  A    between atoms: C9_9  and  O2_12
REMARK    8  A    between atoms: C10_10  and  O1_11
REMARK    9  A    between atoms: C12_14  and  C13_15
REMARK   10  A    between atoms: C12_14  and  C14_16
REMARK   11  A    between atoms: C19_23  and  O6_30
REMARK   12  A    between atoms: C21_25  and  O5_29
REMARK                            x       y       z     vdW  Elec       q    Type
REMARK                         _______ _______ _______ _____ _____    ______ ____
ROOT
ATOM      6  C   UNL     1      48.936  17.895  17.706  0.00  0.00    -0.072 A 
ATOM      7  C   UNL     1      48.390  18.978  18.371  0.00  0.00    -0.085 A 
ATOM     23  C   UNL     1      49.187  20.042  18.738  0.00  0.00    +0.067 A 
ATOM     24  C   UNL     1      50.552  20.028  18.441  0.00  0.00    -0.063 A 
ATOM     29  C   UNL     1      51.103  18.932  17.770  0.00  0.00    +0.101 A 
ATOM     32  C   UNL     1      50.289  17.864  17.409  0.00  0.00    +0.091 A 
ENDROOT
BRANCH   7   8
ATOM      8  C   UNL     1      46.918  18.997  18.694  0.00  0.00    +0.242 C 
ATOM      9  C   UNL     1      46.476  20.439  18.985  0.00  0.00    +0.038 C 
ATOM     10  C   UNL     1      45.000  20.394  19.336  0.00  0.00    +0.404 C 
ATOM     11  C   UNL     1      44.559  19.276  20.178  0.00  0.00    -0.293 A 
ATOM     12  C   UNL     1      43.283  19.279  20.763  0.00  0.00    +0.223 A 
ATOM     15  C   UNL     1      42.888  18.207  21.543  0.00  0.00    -0.074 A 
ATOM     16  C   UNL     1      43.751  17.136  21.743  0.00  0.00    +0.199 A 
ATOM     19  C   UNL     1      45.017  17.130  21.169  0.00  0.00    -0.052 A 
ATOM     20  C   UNL     1      45.433  18.193  20.389  0.00  0.00    +0.215 A 
ATOM     21  O   UNL     1      44.224  21.239  18.940  0.00  0.00    -0.430 OA
ATOM     22  O   UNL     1      46.672  18.186  19.842  0.00  0.00    -0.297 OA
BRANCH  12  13
ATOM     13  O   UNL     1      42.446  20.327  20.568  0.00  0.00    -0.479 OA
ATOM     14  H   UNL     1      42.220  20.806  21.378  0.00  0.00    +0.404 HD
ENDBRANCH  12  13
BRANCH  16  17
ATOM     17  O   UNL     1      43.354  16.087  22.505  0.00  0.00    -0.490 OA
ATOM     18  H   UNL     1      43.558  16.184  23.446  0.00  0.00    +0.403 HD
ENDBRANCH  16  17
ENDBRANCH   7   8
BRANCH  24  25
ATOM     25  C   UNL     1      51.408  21.165  18.834  0.00  0.00    -0.010 C 
ATOM     26  C   UNL     1      51.975  21.186  20.033  0.00  0.00    -0.104 C 
ATOM     27  C   UNL     1      52.961  22.272  20.381  0.00  0.00    +0.084 C 
ATOM     28  C   UNL     1      51.634  20.124  21.046  0.00  0.00    +0.077 C 
ENDBRANCH  24  25
BRANCH  29  30
ATOM     30  O   UNL     1      52.430  18.910  17.476  0.00  0.00    -0.485 OA
ATOM     31  H   UNL     1      52.987  18.585  18.197  0.00  0.00    +0.393 HD
ENDBRANCH  29  30
BRANCH  32  33
ATOM     33  O   UNL     1      50.820  16.794  16.760  0.00  0.00    -0.482 OA
ATOM     34  H   UNL     1      50.908  16.004  17.311  0.00  0.00    +0.389 HD
ENDBRANCH  32  33
BRANCH   6   5
ATOM      5  C   UNL     1      48.055  16.737  17.308  0.00  0.00    +0.111 C 
BRANCH   5   4
ATOM      1  C   UNL     1      46.690  14.298  16.938  0.00  0.00    +0.076 C 
ATOM      2  C   UNL     1      47.572  14.495  18.145  0.00  0.00    -0.112 C 
ATOM      3  C   UNL     1      47.776  13.364  19.120  0.00  0.00    +0.074 C 
ATOM      4  C   UNL     1      48.160  15.647  18.345  0.00  0.00    -0.062 C 
ENDBRANCH   5   4
ENDBRANCH   6   5
TORSDOF 8
ENDMDL
MODEL 8
REMARK VINA RESULT:      -5.9      2.310      7.149
REMARK  Name = ZINC95486051
REMARK  12 active torsions:
REMARK  status: ('A' for Active; 'I' for Inactive)
REMARK    1  A    between atoms: C1_1  and  C2_2
REMARK    2  A    between atoms: C2_2  and  C24_31
REMARK    3  A    between atoms: C3_3  and  C4_4
REMARK    4  A    between atoms: C4_4  and  C5_5
REMARK    5  A    between atoms: C6_6  and  C15_17
REMARK    6  A    between atoms: C8_8  and  C11_13
REMARK    7  A    between atoms: C9_9  and  O2_12
REMARK    8  A    between atoms: C10_10  and  O1_11
REMARK    9  A    between atoms: C12_14  and  C13_15
REMARK   10  A    between atoms: C12_14  and  C14_16
REMARK   11  A    between atoms: C19_23  and  O6_30
REMARK   12  A    between atoms: C21_25  and  O5_29
REMARK                            x       y       z     vdW  Elec       q    Type
REMARK                         _______ _______ _______ _____ _____    ______ ____
ROOT
ATOM      6  C   UNL     1      48.661  17.500  18.332  0.00  0.00    -0.072 A 
ATOM      7  C   UNL     1      47.691  17.932  19.219  0.00  0.00    -0.085 A 
ATOM     23  C   UNL     1      46.804  17.033  19.772  0.00  0.00    +0.067 A 
ATOM     24  C   UNL     1      46.880  15.679  19.436  0.00  0.00    -0.063 A 
ATOM     29  C   UNL     1      47.860  15.243  18.538  0.00  0.00    +0.101 A 
ATOM     32  C   UNL     1      48.745  16.161  17.985  0.00  0.00    +0.091 A 
ENDROOT
BRANCH   7   8
ATOM      8  C   UNL     1      47.605  19.392  19.585  0.00  0.00    +0.242 C 
ATOM      9  C   UNL     1      48.037  19.581  21.046  0.00  0.00    +0.038 C 
ATOM     10  C   UNL     1      47.898  21.058  21.369  0.00  0.00    +0.404 C 
ATOM     11  C   UNL     1      46.716  21.739  20.828  0.00  0.00    -0.293 A 
ATOM     12  C   UNL     1      46.364  23.023  21.272  0.00  0.00    +0.223 A 
ATOM     15  C   UNL     1      45.252  23.648  20.738  0.00  0.00    -0.074 A 
ATOM     16  C   UNL     1      44.491  23.005  19.769  0.00  0.00    +0.199 A 
ATOM     19  C   UNL     1      44.832  21.733  19.328  0.00  0.00    -0.052 A 
ATOM     20  C   UNL     1      45.939  21.088  19.851  0.00  0.00    +0.215 A 
ATOM     21  O   UNL     1      48.722  21.645  22.038  0.00  0.00    -0.430 OA
ATOM     22  O   UNL     1      46.260  19.843  19.427  0.00  0.00    -0.297 OA
BRANCH  12  13
ATOM     13  O   UNL     1      47.107  23.645  22.220  0.00  0.00    -0.479 OA
ATOM     14  H   UNL     1      47.121  24.609  22.140  0.00  0.00    +0.404 HD
ENDBRANCH  12  13
BRANCH  16  17
ATOM     17  O   UNL     1      43.403  23.627  19.246  0.00  0.00    -0.490 OA
ATOM     18  H   UNL     1      43.020  24.301  19.824  0.00  0.00    +0.403 HD
ENDBRANCH  16  17
ENDBRANCH   7   8
BRANCH  24  25
ATOM     25  C   UNL     1      45.931  14.714  20.026  0.00  0.00    -0.010 C 
ATOM     26  C   UNL     1      46.168  14.198  21.224  0.00  0.00    -0.104 C 
ATOM     27  C   UNL     1      45.133  13.327  21.888  0.00  0.00    +0.084 C 
ATOM     28  C   UNL     1      47.472  14.485  21.924  0.00  0.00    +0.077 C 
ENDBRANCH  24  25
BRANCH  29  30
ATOM     30  O   UNL     1      47.942  13.928  18.205  0.00  0.00    -0.485 OA
ATOM     31  H   UNL     1      47.711  13.325  18.925  0.00  0.00    +0.393 HD
ENDBRANCH  29  30
BRANCH  32  33
ATOM     33  O   UNL     1      49.698  15.744  17.109  0.00  0.00    -0.482 OA
ATOM     34  H   UNL     1      49.353  15.221  16.372  0.00  0.00    +0.389 HD
ENDBRANCH  32  33
BRANCH   6   5
ATOM      5  C   UNL     1      49.627  18.491  17.735  0.00  0.00    +0.111 C 
BRANCH   5   4
ATOM      1  C   UNL     1      50.568  21.096  18.265  0.00  0.00    +0.076 C 
ATOM      2  C   UNL     1      51.181  19.913  18.969  0.00  0.00    -0.112 C 
ATOM      3  C   UNL     1      52.252  20.128  20.007  0.00  0.00    +0.074 C 
ATOM      4  C   UNL     1      50.782  18.700  18.680  0.00  0.00    -0.062 C 
ENDBRANCH   5   4
ENDBRANCH   6   5
TORSDOF 8
ENDMDL
MODEL 9
REMARK VINA RESULT:      -5.8      2.593      6.683
REMARK  Name = ZINC95486051
REMARK  12 active torsions:
REMARK  status: ('A' for Active; 'I' for Inactive)
REMARK    1  A    between atoms: C1_1  and  C2_2
REMARK    2  A    between atoms: C2_2  and  C24_31
REMARK    3  A    between atoms: C3_3  and  C4_4
REMARK    4  A    between atoms: C4_4  and  C5_5
REMARK    5  A    between atoms: C6_6  and  C15_17
REMARK    6  A    between atoms: C8_8  and  C11_13
REMARK    7  A    between atoms: C9_9  and  O2_12
REMARK    8  A    between atoms: C10_10  and  O1_11
REMARK    9  A    between atoms: C12_14  and  C13_15
REMARK   10  A    between atoms: C12_14  and  C14_16
REMARK   11  A    between atoms: C19_23  and  O6_30
REMARK   12  A    between atoms: C21_25  and  O5_29
REMARK                            x       y       z     vdW  Elec       q    Type
REMARK                         _______ _______ _______ _____ _____    ______ ____
ROOT
ATOM      6  C   UNL     1      45.802  18.560  19.829  0.00  0.00    -0.072 A 
ATOM      7  C   UNL     1      47.067  18.003  19.876  0.00  0.00    -0.085 A 
ATOM     23  C   UNL     1      47.310  16.891  20.653  0.00  0.00    +0.067 A 
ATOM     24  C   UNL     1      46.275  16.321  21.399  0.00  0.00    -0.063 A 
ATOM     29  C   UNL     1      44.997  16.884  21.353  0.00  0.00    +0.101 A 
ATOM     32  C   UNL     1      44.767  18.008  20.568  0.00  0.00    +0.091 A 
ENDROOT
BRANCH   7   8
ATOM      8  C   UNL     1      48.186  18.615  19.072  0.00  0.00    +0.242 C 
ATOM      9  C   UNL     1      48.959  17.507  18.344  0.00  0.00    +0.038 C 
ATOM     10  C   UNL     1      50.090  18.174  17.582  0.00  0.00    +0.404 C 
ATOM     11  C   UNL     1      50.788  19.267  18.268  0.00  0.00    -0.293 A 
ATOM     12  C   UNL     1      51.996  19.774  17.763  0.00  0.00    +0.223 A 
ATOM     15  C   UNL     1      52.628  20.812  18.422  0.00  0.00    -0.074 A 
ATOM     16  C   UNL     1      52.068  21.347  19.576  0.00  0.00    +0.199 A 
ATOM     19  C   UNL     1      50.876  20.846  20.083  0.00  0.00    -0.052 A 
ATOM     20  C   UNL     1      50.229  19.806  19.441  0.00  0.00    +0.215 A 
ATOM     21  O   UNL     1      50.400  17.822  16.462  0.00  0.00    -0.430 OA
ATOM     22  O   UNL     1      49.073  19.314  19.946  0.00  0.00    -0.297 OA
BRANCH  12  13
ATOM     13  O   UNL     1      52.540  19.247  16.638  0.00  0.00    -0.479 OA
ATOM     14  H   UNL     1      53.344  18.732  16.794  0.00  0.00    +0.404 HD
ENDBRANCH  12  13
BRANCH  16  17
ATOM     17  O   UNL     1      52.693  22.369  20.215  0.00  0.00    -0.490 OA
ATOM     18  H   UNL     1      53.528  22.636  19.807  0.00  0.00    +0.403 HD
ENDBRANCH  16  17
ENDBRANCH   7   8
BRANCH  24  25
ATOM     25  C   UNL     1      46.532  15.129  22.233  0.00  0.00    -0.010 C 
ATOM     26  C   UNL     1      46.516  13.921  21.686  0.00  0.00    -0.104 C 
ATOM     27  C   UNL     1      46.918  12.719  22.502  0.00  0.00    +0.084 C 
ATOM     28  C   UNL     1      46.097  13.749  20.249  0.00  0.00    +0.077 C 
ENDBRANCH  24  25
BRANCH  29  30
ATOM     30  O   UNL     1      43.984  16.336  22.075  0.00  0.00    -0.485 OA
ATOM     31  H   UNL     1      43.107  16.473  21.691  0.00  0.00    +0.393 HD
ENDBRANCH  29  30
BRANCH  32  33
ATOM     33  O   UNL     1      43.526  18.563  20.522  0.00  0.00    -0.482 OA
ATOM     34  H   UNL     1      42.936  18.267  21.228  0.00  0.00    +0.389 HD
ENDBRANCH  32  33
BRANCH   6   5
ATOM      5  C   UNL     1      45.547  19.776  18.976  0.00  0.00    +0.111 C 
BRANCH   5   4
ATOM      1  C   UNL     1      43.643  21.785  19.514  0.00  0.00    +0.076 C 
ATOM      2  C   UNL     1      45.052  21.920  20.033  0.00  0.00    -0.112 C 
ATOM      3  C   UNL     1      45.426  23.098  20.896  0.00  0.00    +0.074 C 
ATOM      4  C   UNL     1      45.949  21.015  19.735  0.00  0.00    -0.062 C 
ENDBRANCH   5   4
ENDBRANCH   6   5
TORSDOF 8
ENDMDL
