MODEL 1
REMARK VINA RESULT:      -7.0      0.000      0.000
REMARK  Name = ZINC01530009
REMARK  10 active torsions:
REMARK  status: ('A' for Active; 'I' for Inactive)
REMARK    1  A    between atoms: C3_3  and  O10_36
REMARK    2  A    between atoms: C6_6  and  C7_7
REMARK    3  A    between atoms: C11_12  and  O9_35
REMARK    4  A    between atoms: C13_14  and  O3_18
REMARK    5  A    between atoms: O3_18  and  C16_19
REMARK    6  A    between atoms: C17_21  and  O8_34
REMARK    7  A    between atoms: C18_23  and  O7_33
REMARK    8  A    between atoms: C19_25  and  O6_32
REMARK    9  A    between atoms: C20_27  and  C21_30
REMARK   10  A    between atoms: C21_30  and  O5_31
REMARK                            x       y       z     vdW  Elec       q    Type
REMARK                         _______ _______ _______ _____ _____    ______ ____
ROOT
ATOM      9  C   UNL     1      48.046  20.199  19.157  0.00  0.00    +0.207 A 
ATOM     10  C   UNL     1      49.241  20.776  18.854  0.00  0.00    -0.146 A 
ATOM     11  C   UNL     1      50.284  19.983  18.320  0.00  0.00    +0.425 A 
ATOM     12  C   UNL     1      50.010  18.549  18.118  0.00  0.00    -0.285 A 
ATOM     13  C   UNL     1      50.983  17.690  17.594  0.00  0.00    +0.242 A 
ATOM     16  C   UNL     1      50.686  16.351  17.419  0.00  0.00    -0.095 A 
ATOM     17  C   UNL     1      49.429  15.863  17.763  0.00  0.00    +0.207 A 
ATOM     34  C   UNL     1      48.460  16.709  18.278  0.00  0.00    -0.029 A 
ATOM     35  C   UNL     1      48.741  18.055  18.465  0.00  0.00    +0.201 A 
ATOM     36  O   UNL     1      51.368  20.466  18.038  0.00  0.00    -0.456 OA
ATOM     37  O   UNL     1      47.809  18.891  18.969  0.00  0.00    -0.217 OA
ENDROOT
BRANCH   9   8
ATOM      1  C   UNL     1      47.120  21.624  20.977  0.00  0.00    +0.080 A 
ATOM      2  C   UNL     1      46.116  22.414  21.491  0.00  0.00    -0.006 A 
ATOM      3  C   UNL     1      44.953  22.625  20.761  0.00  0.00    +0.135 A 
ATOM      6  C   UNL     1      44.800  22.046  19.507  0.00  0.00    -0.010 A 
ATOM      7  C   UNL     1      45.801  21.258  18.982  0.00  0.00    +0.080 A 
ATOM      8  C   UNL     1      46.972  21.042  19.714  0.00  0.00    -0.084 A 
BRANCH   3   4
ATOM      4  O   UNL     1      43.963  23.401  21.273  0.00  0.00    -0.497 OA
ATOM      5  H   UNL     1      44.004  23.505  22.233  0.00  0.00    +0.398 HD
ENDBRANCH   3   4
ENDBRANCH   9   8
BRANCH  13  14
ATOM     14  O   UNL     1      52.208  18.167  17.259  0.00  0.00    -0.470 OA
ATOM     15  H   UNL     1      52.376  19.070  17.562  0.00  0.00    +0.402 HD
ENDBRANCH  13  14
BRANCH  17  18
ATOM     18  O   UNL     1      49.148  14.547  17.586  0.00  0.00    -0.285 OA
BRANCH  18  19
ATOM     19  C   UNL     1      49.434  13.989  16.302  0.00  0.00    +0.305 C 
ATOM     20  C   UNL     1      48.170  13.340  15.734  0.00  0.00    +0.151 C 
ATOM     23  C   UNL     1      48.497  12.693  14.386  0.00  0.00    +0.166 C 
ATOM     26  C   UNL     1      49.633  11.682  14.581  0.00  0.00    +0.172 C 
ATOM     29  C   UNL     1      50.842  12.395  15.193  0.00  0.00    +0.194 C 
ATOM     33  O   UNL     1      50.459  13.001  16.429  0.00  0.00    -0.370 OA
BRANCH  20  21
ATOM     21  O   UNL     1      47.162  14.336  15.553  0.00  0.00    -0.553 OA
ATOM     22  H   UNL     1      47.061  14.936  16.306  0.00  0.00    +0.396 HD
ENDBRANCH  20  21
BRANCH  23  24
ATOM     24  O   UNL     1      47.339  12.022  13.883  0.00  0.00    -0.552 OA
ATOM     25  H   UNL     1      47.218  11.130  14.236  0.00  0.00    +0.397 HD
ENDBRANCH  23  24
BRANCH  26  27
ATOM     27  O   UNL     1      49.999  11.123  13.318  0.00  0.00    -0.548 OA
ATOM     28  H   UNL     1      50.909  10.797  13.280  0.00  0.00    +0.396 HD
ENDBRANCH  26  27
BRANCH  29  30
ATOM     30  C   UNL     1      51.959  11.381  15.447  0.00  0.00    +0.227 C 
BRANCH  30  31
ATOM     31  O   UNL     1      52.729  11.212  14.255  0.00  0.00    -0.564 OA
ATOM     32  H   UNL     1      53.344  11.936  14.078  0.00  0.00    +0.386 HD
ENDBRANCH  30  31
ENDBRANCH  29  30
ENDBRANCH  18  19
ENDBRANCH  17  18
TORSDOF 10
ENDMDL
MODEL 2
REMARK VINA RESULT:      -6.8      3.931      9.051
REMARK  Name = ZINC01530009
REMARK  10 active torsions:
REMARK  status: ('A' for Active; 'I' for Inactive)
REMARK    1  A    between atoms: C3_3  and  O10_36
REMARK    2  A    between atoms: C6_6  and  C7_7
REMARK    3  A    between atoms: C11_12  and  O9_35
REMARK    4  A    between atoms: C13_14  and  O3_18
REMARK    5  A    between atoms: O3_18  and  C16_19
REMARK    6  A    between atoms: C17_21  and  O8_34
REMARK    7  A    between atoms: C18_23  and  O7_33
REMARK    8  A    between atoms: C19_25  and  O6_32
REMARK    9  A    between atoms: C20_27  and  C21_30
REMARK   10  A    between atoms: C21_30  and  O5_31
REMARK                            x       y       z     vdW  Elec       q    Type
REMARK                         _______ _______ _______ _____ _____    ______ ____
ROOT
ATOM      9  C   UNL     1      49.267  18.127  18.298  0.00  0.00    +0.207 A 
ATOM     10  C   UNL     1      49.592  16.854  18.655  0.00  0.00    -0.146 A 
ATOM     11  C   UNL     1      48.639  16.052  19.324  0.00  0.00    +0.425 A 
ATOM     12  C   UNL     1      47.321  16.652  19.600  0.00  0.00    -0.285 A 
ATOM     13  C   UNL     1      46.317  15.930  20.256  0.00  0.00    +0.242 A 
ATOM     16  C   UNL     1      45.094  16.529  20.497  0.00  0.00    -0.095 A 
ATOM     17  C   UNL     1      44.866  17.840  20.088  0.00  0.00    +0.207 A 
ATOM     34  C   UNL     1      45.854  18.558  19.434  0.00  0.00    -0.029 A 
ATOM     35  C   UNL     1      47.089  17.975  19.188  0.00  0.00    +0.201 A 
ATOM     36  O   UNL     1      48.896  14.907  19.659  0.00  0.00    -0.456 OA
ATOM     37  O   UNL     1      48.063  18.662  18.556  0.00  0.00    -0.217 OA
ENDROOT
BRANCH   9   8
ATOM      1  C   UNL     1      50.535  20.253  18.033  0.00  0.00    +0.080 A 
ATOM      2  C   UNL     1      51.480  21.016  17.383  0.00  0.00    -0.006 A 
ATOM      3  C   UNL     1      52.168  20.493  16.295  0.00  0.00    +0.135 A 
ATOM      6  C   UNL     1      51.910  19.198  15.861  0.00  0.00    -0.010 A 
ATOM      7  C   UNL     1      50.971  18.426  16.508  0.00  0.00    +0.080 A 
ATOM      8  C   UNL     1      50.275  18.948  17.603  0.00  0.00    -0.084 A 
BRANCH   3   4
ATOM      4  O   UNL     1      53.096  21.249  15.654  0.00  0.00    -0.497 OA
ATOM      5  H   UNL     1      53.167  22.152  15.992  0.00  0.00    +0.398 HD
ENDBRANCH   3   4
ENDBRANCH   9   8
BRANCH  13  14
ATOM     14  O   UNL     1      46.541  14.653  20.655  0.00  0.00    -0.470 OA
ATOM     15  H   UNL     1      46.202  13.984  20.043  0.00  0.00    +0.402 HD
ENDBRANCH  13  14
BRANCH  17  18
ATOM     18  O   UNL     1      43.662  18.418  20.328  0.00  0.00    -0.285 OA
BRANCH  18  19
ATOM     19  C   UNL     1      43.312  19.548  19.525  0.00  0.00    +0.305 C 
ATOM     20  C   UNL     1      43.517  20.831  20.333  0.00  0.00    +0.151 C 
ATOM     23  C   UNL     1      43.086  22.033  19.489  0.00  0.00    +0.166 C 
ATOM     26  C   UNL     1      41.626  21.842  19.058  0.00  0.00    +0.172 C 
ATOM     29  C   UNL     1      41.495  20.520  18.298  0.00  0.00    +0.194 C 
ATOM     33  O   UNL     1      41.943  19.448  19.131  0.00  0.00    -0.370 OA
BRANCH  20  21
ATOM     21  O   UNL     1      44.897  20.962  20.680  0.00  0.00    -0.553 OA
ATOM     22  H   UNL     1      45.051  21.146  21.618  0.00  0.00    +0.396 HD
ENDBRANCH  20  21
BRANCH  23  24
ATOM     24  O   UNL     1      43.205  23.229  20.262  0.00  0.00    -0.552 OA
ATOM     25  H   UNL     1      42.402  23.768  20.278  0.00  0.00    +0.397 HD
ENDBRANCH  23  24
BRANCH  26  27
ATOM     27  O   UNL     1      41.233  22.921  18.209  0.00  0.00    -0.548 OA
ATOM     28  H   UNL     1      40.296  23.154  18.276  0.00  0.00    +0.396 HD
ENDBRANCH  26  27
BRANCH  29  30
ATOM     30  C   UNL     1      40.031  20.292  17.917  0.00  0.00    +0.227 C 
BRANCH  30  31
ATOM     31  O   UNL     1      39.202  21.200  18.646  0.00  0.00    -0.564 OA
ATOM     32  H   UNL     1      39.474  21.329  19.565  0.00  0.00    +0.386 HD
ENDBRANCH  30  31
ENDBRANCH  29  30
ENDBRANCH  18  19
ENDBRANCH  17  18
TORSDOF 10
ENDMDL
MODEL 3
REMARK VINA RESULT:      -6.6      2.491     10.071
REMARK  Name = ZINC01530009
REMARK  10 active torsions:
REMARK  status: ('A' for Active; 'I' for Inactive)
REMARK    1  A    between atoms: C3_3  and  O10_36
REMARK    2  A    between atoms: C6_6  and  C7_7
REMARK    3  A    between atoms: C11_12  and  O9_35
REMARK    4  A    between atoms: C13_14  and  O3_18
REMARK    5  A    between atoms: O3_18  and  C16_19
REMARK    6  A    between atoms: C17_21  and  O8_34
REMARK    7  A    between atoms: C18_23  and  O7_33
REMARK    8  A    between atoms: C19_25  and  O6_32
REMARK    9  A    between atoms: C20_27  and  C21_30
REMARK   10  A    between atoms: C21_30  and  O5_31
REMARK                            x       y       z     vdW  Elec       q    Type
REMARK                         _______ _______ _______ _____ _____    ______ ____
ROOT
ATOM      9  C   UNL     1      48.167  14.277  16.865  0.00  0.00    +0.207 A 
ATOM     10  C   UNL     1      47.381  13.487  17.646  0.00  0.00    -0.146 A 
ATOM     11  C   UNL     1      46.446  14.083  18.524  0.00  0.00    +0.425 A 
ATOM     12  C   UNL     1      46.375  15.555  18.542  0.00  0.00    -0.285 A 
ATOM     13  C   UNL     1      45.479  16.229  19.380  0.00  0.00    +0.242 A 
ATOM     16  C   UNL     1      45.444  17.612  19.367  0.00  0.00    -0.095 A 
ATOM     17  C   UNL     1      46.294  18.324  18.526  0.00  0.00    +0.207 A 
ATOM     34  C   UNL     1      47.180  17.663  17.692  0.00  0.00    -0.029 A 
ATOM     35  C   UNL     1      47.233  16.277  17.695  0.00  0.00    +0.201 A 
ATOM     36  O   UNL     1      45.726  13.406  19.239  0.00  0.00    -0.456 OA
ATOM     37  O   UNL     1      48.094  15.617  16.890  0.00  0.00    -0.217 OA
ENDROOT
BRANCH   9   8
ATOM      1  C   UNL     1      50.509  13.786  16.177  0.00  0.00    +0.080 A 
ATOM      2  C   UNL     1      51.411  13.183  15.329  0.00  0.00    -0.006 A 
ATOM      3  C   UNL     1      50.958  12.435  14.249  0.00  0.00    +0.135 A 
ATOM      6  C   UNL     1      49.595  12.287  14.022  0.00  0.00    -0.010 A 
ATOM      7  C   UNL     1      48.685  12.882  14.869  0.00  0.00    +0.080 A 
ATOM      8  C   UNL     1      49.136  13.636  15.956  0.00  0.00    -0.084 A 
BRANCH   3   4
ATOM      4  O   UNL     1      51.850  11.845  13.411  0.00  0.00    -0.497 OA
ATOM      5  H   UNL     1      52.040  12.360  12.616  0.00  0.00    +0.398 HD
ENDBRANCH   3   4
ENDBRANCH   9   8
BRANCH  13  14
ATOM     14  O   UNL     1      44.651  15.533  20.198  0.00  0.00    -0.470 OA
ATOM     15  H   UNL     1      45.095  15.132  20.958  0.00  0.00    +0.402 HD
ENDBRANCH  13  14
BRANCH  17  18
ATOM     18  O   UNL     1      46.250  19.681  18.521  0.00  0.00    -0.285 OA
BRANCH  18  19
ATOM     19  C   UNL     1      45.569  20.313  19.606  0.00  0.00    +0.305 C 
ATOM     20  C   UNL     1      44.427  21.174  19.061  0.00  0.00    +0.151 C 
ATOM     23  C   UNL     1      43.738  21.894  20.223  0.00  0.00    +0.166 C 
ATOM     26  C   UNL     1      44.781  22.723  20.984  0.00  0.00    +0.172 C 
ATOM     29  C   UNL     1      45.909  21.802  21.456  0.00  0.00    +0.194 C 
ATOM     33  O   UNL     1      46.484  21.139  20.327  0.00  0.00    -0.370 OA
BRANCH  20  21
ATOM     21  O   UNL     1      43.481  20.342  18.387  0.00  0.00    -0.553 OA
ATOM     22  H   UNL     1      42.826  19.936  18.974  0.00  0.00    +0.396 HD
ENDBRANCH  20  21
BRANCH  23  24
ATOM     24  O   UNL     1      42.718  22.757  19.715  0.00  0.00    -0.552 OA
ATOM     25  H   UNL     1      42.477  23.476  20.315  0.00  0.00    +0.397 HD
ENDBRANCH  23  24
BRANCH  26  27
ATOM     27  O   UNL     1      44.166  23.343  22.115  0.00  0.00    -0.548 OA
ATOM     28  H   UNL     1      44.084  22.763  22.885  0.00  0.00    +0.396 HD
ENDBRANCH  26  27
BRANCH  29  30
ATOM     30  C   UNL     1      46.983  22.630  22.163  0.00  0.00    +0.227 C 
BRANCH  30  31
ATOM     31  O   UNL     1      46.869  23.998  21.766  0.00  0.00    -0.564 OA
ATOM     32  H   UNL     1      46.865  24.623  22.504  0.00  0.00    +0.386 HD
ENDBRANCH  30  31
ENDBRANCH  29  30
ENDBRANCH  18  19
ENDBRANCH  17  18
TORSDOF 10
ENDMDL
MODEL 4
REMARK VINA RESULT:      -6.6      1.332      1.946
REMARK  Name = ZINC01530009
REMARK  10 active torsions:
REMARK  status: ('A' for Active; 'I' for Inactive)
REMARK    1  A    between atoms: C3_3  and  O10_36
REMARK    2  A    between atoms: C6_6  and  C7_7
REMARK    3  A    between atoms: C11_12  and  O9_35
REMARK    4  A    between atoms: C13_14  and  O3_18
REMARK    5  A    between atoms: O3_18  and  C16_19
REMARK    6  A    between atoms: C17_21  and  O8_34
REMARK    7  A    between atoms: C18_23  and  O7_33
REMARK    8  A    between atoms: C19_25  and  O6_32
REMARK    9  A    between atoms: C20_27  and  C21_30
REMARK   10  A    between atoms: C21_30  and  O5_31
REMARK                            x       y       z     vdW  Elec       q    Type
REMARK                         _______ _______ _______ _____ _____    ______ ____
ROOT
ATOM      9  C   UNL     1      48.235  20.212  19.178  0.00  0.00    +0.207 A 
ATOM     10  C   UNL     1      49.384  20.846  18.820  0.00  0.00    -0.146 A 
ATOM     11  C   UNL     1      50.473  20.092  18.325  0.00  0.00    +0.425 A 
ATOM     12  C   UNL     1      50.297  18.632  18.224  0.00  0.00    -0.285 A 
ATOM     13  C   UNL     1      51.322  17.808  17.745  0.00  0.00    +0.242 A 
ATOM     16  C   UNL     1      51.117  16.442  17.665  0.00  0.00    -0.095 A 
ATOM     17  C   UNL     1      49.899  15.895  18.059  0.00  0.00    +0.207 A 
ATOM     34  C   UNL     1      48.879  16.706  18.530  0.00  0.00    -0.029 A 
ATOM     35  C   UNL     1      49.068  18.077  18.622  0.00  0.00    +0.201 A 
ATOM     36  O   UNL     1      51.518  20.628  17.996  0.00  0.00    -0.456 OA
ATOM     37  O   UNL     1      48.086  18.881  19.082  0.00  0.00    -0.217 OA
ENDROOT
BRANCH   9   8
ATOM      1  C   UNL     1      45.946  21.159  18.932  0.00  0.00    +0.080 A 
ATOM      2  C   UNL     1      44.896  21.907  19.418  0.00  0.00    -0.006 A 
ATOM      3  C   UNL     1      44.998  22.527  20.657  0.00  0.00    +0.135 A 
ATOM      6  C   UNL     1      46.154  22.390  21.415  0.00  0.00    -0.010 A 
ATOM      7  C   UNL     1      47.207  21.639  20.940  0.00  0.00    +0.080 A 
ATOM      8  C   UNL     1      47.110  21.016  19.693  0.00  0.00    -0.084 A 
BRANCH   3   4
ATOM      4  O   UNL     1      43.962  23.267  21.131  0.00  0.00    -0.497 OA
ATOM      5  H   UNL     1      43.103  22.831  21.058  0.00  0.00    +0.398 HD
ENDBRANCH   3   4
ENDBRANCH   9   8
BRANCH  13  14
ATOM     14  O   UNL     1      52.508  18.343  17.362  0.00  0.00    -0.470 OA
ATOM     15  H   UNL     1      53.243  18.136  17.955  0.00  0.00    +0.402 HD
ENDBRANCH  13  14
BRANCH  17  18
ATOM     18  O   UNL     1      49.708  14.554  17.976  0.00  0.00    -0.285 OA
BRANCH  18  19
ATOM     19  C   UNL     1      48.755  14.093  17.016  0.00  0.00    +0.305 C 
ATOM     20  C   UNL     1      47.896  12.989  17.639  0.00  0.00    +0.151 C 
ATOM     23  C   UNL     1      46.916  12.459  16.588  0.00  0.00    +0.166 C 
ATOM     26  C   UNL     1      47.709  11.964  15.372  0.00  0.00    +0.172 C 
ATOM     29  C   UNL     1      48.575  13.107  14.836  0.00  0.00    +0.194 C 
ATOM     33  O   UNL     1      49.440  13.574  15.874  0.00  0.00    -0.370 OA
BRANCH  20  21
ATOM     21  O   UNL     1      47.166  13.520  18.746  0.00  0.00    -0.553 OA
ATOM     22  H   UNL     1      47.243  12.995  19.556  0.00  0.00    +0.396 HD
ENDBRANCH  20  21
BRANCH  23  24
ATOM     24  O   UNL     1      46.161  11.379  17.140  0.00  0.00    -0.552 OA
ATOM     25  H   UNL     1      46.027  10.641  16.529  0.00  0.00    +0.397 HD
ENDBRANCH  23  24
BRANCH  26  27
ATOM     27  O   UNL     1      46.805  11.533  14.354  0.00  0.00    -0.548 OA
ATOM     28  H   UNL     1      46.145  12.197  14.107  0.00  0.00    +0.396 HD
ENDBRANCH  26  27
BRANCH  29  30
ATOM     30  C   UNL     1      49.415  12.605  13.660  0.00  0.00    +0.227 C 
BRANCH  30  31
ATOM     31  O   UNL     1      48.801  13.002  12.433  0.00  0.00    -0.564 OA
ATOM     32  H   UNL     1      49.105  12.502  11.662  0.00  0.00    +0.386 HD
ENDBRANCH  30  31
ENDBRANCH  29  30
ENDBRANCH  18  19
ENDBRANCH  17  18
TORSDOF 10
ENDMDL
MODEL 5
REMARK VINA RESULT:      -6.5      3.009     10.013
REMARK  Name = ZINC01530009
REMARK  10 active torsions:
REMARK  status: ('A' for Active; 'I' for Inactive)
REMARK    1  A    between atoms: C3_3  and  O10_36
REMARK    2  A    between atoms: C6_6  and  C7_7
REMARK    3  A    between atoms: C11_12  and  O9_35
REMARK    4  A    between atoms: C13_14  and  O3_18
REMARK    5  A    between atoms: O3_18  and  C16_19
REMARK    6  A    between atoms: C17_21  and  O8_34
REMARK    7  A    between atoms: C18_23  and  O7_33
REMARK    8  A    between atoms: C19_25  and  O6_32
REMARK    9  A    between atoms: C20_27  and  C21_30
REMARK   10  A    between atoms: C21_30  and  O5_31
REMARK                            x       y       z     vdW  Elec       q    Type
REMARK                         _______ _______ _______ _____ _____    ______ ____
ROOT
ATOM      9  C   UNL     1      48.110  13.270  15.642  0.00  0.00    +0.207 A 
ATOM     10  C   UNL     1      47.300  12.203  15.877  0.00  0.00    -0.146 A 
ATOM     11  C   UNL     1      46.334  12.273  16.908  0.00  0.00    +0.425 A 
ATOM     12  C   UNL     1      46.258  13.525  17.681  0.00  0.00    -0.285 A 
ATOM     13  C   UNL     1      45.331  13.684  18.719  0.00  0.00    +0.242 A 
ATOM     16  C   UNL     1      45.292  14.875  19.421  0.00  0.00    -0.095 A 
ATOM     17  C   UNL     1      46.168  15.906  19.096  0.00  0.00    +0.207 A 
ATOM     34  C   UNL     1      47.084  15.757  18.068  0.00  0.00    -0.029 A 
ATOM     35  C   UNL     1      47.142  14.568  17.356  0.00  0.00    +0.201 A 
ATOM     36  O   UNL     1      45.592  11.335  17.148  0.00  0.00    -0.456 OA
ATOM     37  O   UNL     1      48.032  14.406  16.354  0.00  0.00    -0.217 OA
ENDROOT
BRANCH   9   8
ATOM      1  C   UNL     1      50.476  13.165  14.873  0.00  0.00    +0.080 A 
ATOM      2  C   UNL     1      51.408  13.073  13.863  0.00  0.00    -0.006 A 
ATOM      3  C   UNL     1      50.995  13.003  12.538  0.00  0.00    +0.135 A 
ATOM      6  C   UNL     1      49.641  13.019  12.226  0.00  0.00    -0.010 A 
ATOM      7  C   UNL     1      48.701  13.105  13.229  0.00  0.00    +0.080 A 
ATOM      8  C   UNL     1      49.112  13.177  14.563  0.00  0.00    -0.084 A 
BRANCH   3   4
ATOM      4  O   UNL     1      51.918  12.917  11.545  0.00  0.00    -0.497 OA
ATOM      5  H   UNL     1      51.714  12.250  10.877  0.00  0.00    +0.398 HD
ENDBRANCH   3   4
ENDBRANCH   9   8
BRANCH  13  14
ATOM     14  O   UNL     1      44.478  12.677  19.034  0.00  0.00    -0.470 OA
ATOM     15  H   UNL     1      44.884  11.799  19.024  0.00  0.00    +0.402 HD
ENDBRANCH  13  14
BRANCH  17  18
ATOM     18  O   UNL     1      46.119  17.071  19.791  0.00  0.00    -0.285 OA
BRANCH  18  19
ATOM     19  C   UNL     1      45.049  17.967  19.482  0.00  0.00    +0.305 C 
ATOM     20  C   UNL     1      45.616  19.361  19.200  0.00  0.00    +0.151 C 
ATOM     23  C   UNL     1      44.461  20.329  18.927  0.00  0.00    +0.166 C 
ATOM     26  C   UNL     1      43.509  20.320  20.130  0.00  0.00    +0.172 C 
ATOM     29  C   UNL     1      43.024  18.889  20.376  0.00  0.00    +0.194 C 
ATOM     33  O   UNL     1      44.150  18.036  20.590  0.00  0.00    -0.370 OA
BRANCH  20  21
ATOM     21  O   UNL     1      46.472  19.305  18.057  0.00  0.00    -0.553 OA
ATOM     22  H   UNL     1      46.760  18.411  17.824  0.00  0.00    +0.396 HD
ENDBRANCH  20  21
BRANCH  23  24
ATOM     24  O   UNL     1      44.978  21.647  18.734  0.00  0.00    -0.552 OA
ATOM     25  H   UNL     1      44.607  22.106  17.968  0.00  0.00    +0.397 HD
ENDBRANCH  23  24
BRANCH  26  27
ATOM     27  O   UNL     1      42.389  21.164  19.859  0.00  0.00    -0.548 OA
ATOM     28  H   UNL     1      42.555  22.103  20.022  0.00  0.00    +0.396 HD
ENDBRANCH  26  27
BRANCH  29  30
ATOM     30  C   UNL     1      42.121  18.861  21.611  0.00  0.00    +0.227 C 
BRANCH  30  31
ATOM     31  O   UNL     1      40.854  19.437  21.288  0.00  0.00    -0.564 OA
ATOM     32  H   UNL     1      40.374  19.784  22.052  0.00  0.00    +0.386 HD
ENDBRANCH  30  31
ENDBRANCH  29  30
ENDBRANCH  18  19
ENDBRANCH  17  18
TORSDOF 10
ENDMDL
MODEL 6
REMARK VINA RESULT:      -6.4      3.454      4.466
REMARK  Name = ZINC01530009
REMARK  10 active torsions:
REMARK  status: ('A' for Active; 'I' for Inactive)
REMARK    1  A    between atoms: C3_3  and  O10_36
REMARK    2  A    between atoms: C6_6  and  C7_7
REMARK    3  A    between atoms: C11_12  and  O9_35
REMARK    4  A    between atoms: C13_14  and  O3_18
REMARK    5  A    between atoms: O3_18  and  C16_19
REMARK    6  A    between atoms: C17_21  and  O8_34
REMARK    7  A    between atoms: C18_23  and  O7_33
REMARK    8  A    between atoms: C19_25  and  O6_32
REMARK    9  A    between atoms: C20_27  and  C21_30
REMARK   10  A    between atoms: C21_30  and  O5_31
REMARK                            x       y       z     vdW  Elec       q    Type
REMARK                         _______ _______ _______ _____ _____    ______ ____
ROOT
ATOM      9  C   UNL     1      43.875  19.301  20.280  0.00  0.00    +0.207 A 
ATOM     10  C   UNL     1      44.715  19.921  21.153  0.00  0.00    -0.146 A 
ATOM     11  C   UNL     1      45.855  19.235  21.632  0.00  0.00    +0.425 A 
ATOM     12  C   UNL     1      46.073  17.861  21.146  0.00  0.00    -0.285 A 
ATOM     13  C   UNL     1      47.176  17.108  21.567  0.00  0.00    +0.242 A 
ATOM     16  C   UNL     1      47.345  15.821  21.088  0.00  0.00    -0.095 A 
ATOM     17  C   UNL     1      46.423  15.282  20.194  0.00  0.00    +0.207 A 
ATOM     34  C   UNL     1      45.333  16.024  19.771  0.00  0.00    -0.029 A 
ATOM     35  C   UNL     1      45.144  17.314  20.245  0.00  0.00    +0.201 A 
ATOM     36  O   UNL     1      46.629  19.759  22.416  0.00  0.00    -0.456 OA
ATOM     37  O   UNL     1      44.084  18.048  19.845  0.00  0.00    -0.217 OA
ENDROOT
BRANCH   9   8
ATOM      1  C   UNL     1      42.830  21.319  19.263  0.00  0.00    +0.080 A 
ATOM      2  C   UNL     1      41.722  21.997  18.805  0.00  0.00    -0.006 A 
ATOM      3  C   UNL     1      40.466  21.408  18.879  0.00  0.00    +0.135 A 
ATOM      6  C   UNL     1      40.321  20.132  19.410  0.00  0.00    -0.010 A 
ATOM      7  C   UNL     1      41.425  19.444  19.865  0.00  0.00    +0.080 A 
ATOM      8  C   UNL     1      42.690  20.033  19.793  0.00  0.00    -0.084 A 
BRANCH   3   4
ATOM      4  O   UNL     1      39.375  22.082  18.431  0.00  0.00    -0.497 OA
ATOM      5  H   UNL     1      39.046  22.750  19.047  0.00  0.00    +0.398 HD
ENDBRANCH   3   4
ENDBRANCH   9   8
BRANCH  13  14
ATOM     14  O   UNL     1      48.073  17.635  22.438  0.00  0.00    -0.470 OA
ATOM     15  H   UNL     1      47.732  18.381  22.950  0.00  0.00    +0.402 HD
ENDBRANCH  13  14
BRANCH  17  18
ATOM     18  O   UNL     1      46.600  14.019  19.729  0.00  0.00    -0.285 OA
BRANCH  18  19
ATOM     19  C   UNL     1      46.543  13.835  18.313  0.00  0.00    +0.305 C 
ATOM     20  C   UNL     1      45.650  12.635  17.989  0.00  0.00    +0.151 C 
ATOM     23  C   UNL     1      45.640  12.407  16.475  0.00  0.00    +0.166 C 
ATOM     26  C   UNL     1      47.082  12.207  15.992  0.00  0.00    +0.172 C 
ATOM     29  C   UNL     1      47.920  13.424  16.392  0.00  0.00    +0.194 C 
ATOM     33  O   UNL     1      47.859  13.597  17.810  0.00  0.00    -0.370 OA
BRANCH  20  21
ATOM     21  O   UNL     1      44.319  12.895  18.441  0.00  0.00    -0.553 OA
ATOM     22  H   UNL     1      43.928  13.698  18.070  0.00  0.00    +0.396 HD
ENDBRANCH  20  21
BRANCH  23  24
ATOM     24  O   UNL     1      44.866  11.245  16.171  0.00  0.00    -0.552 OA
ATOM     25  H   UNL     1      45.393  10.443  16.050  0.00  0.00    +0.397 HD
ENDBRANCH  23  24
BRANCH  26  27
ATOM     27  O   UNL     1      47.095  12.066  14.571  0.00  0.00    -0.548 OA
ATOM     28  H   UNL     1      47.919  12.353  14.154  0.00  0.00    +0.396 HD
ENDBRANCH  26  27
BRANCH  29  30
ATOM     30  C   UNL     1      49.373  13.206  15.967  0.00  0.00    +0.227 C 
BRANCH  30  31
ATOM     31  O   UNL     1      49.486  13.370  14.552  0.00  0.00    -0.564 OA
ATOM     32  H   UNL     1      49.905  12.623  14.103  0.00  0.00    +0.386 HD
ENDBRANCH  30  31
ENDBRANCH  29  30
ENDBRANCH  18  19
ENDBRANCH  17  18
TORSDOF 10
ENDMDL
MODEL 7
REMARK VINA RESULT:      -6.4      1.889      9.220
REMARK  Name = ZINC01530009
REMARK  10 active torsions:
REMARK  status: ('A' for Active; 'I' for Inactive)
REMARK    1  A    between atoms: C3_3  and  O10_36
REMARK    2  A    between atoms: C6_6  and  C7_7
REMARK    3  A    between atoms: C11_12  and  O9_35
REMARK    4  A    between atoms: C13_14  and  O3_18
REMARK    5  A    between atoms: O3_18  and  C16_19
REMARK    6  A    between atoms: C17_21  and  O8_34
REMARK    7  A    between atoms: C18_23  and  O7_33
REMARK    8  A    between atoms: C19_25  and  O6_32
REMARK    9  A    between atoms: C20_27  and  C21_30
REMARK   10  A    between atoms: C21_30  and  O5_31
REMARK                            x       y       z     vdW  Elec       q    Type
REMARK                         _______ _______ _______ _____ _____    ______ ____
ROOT
ATOM      9  C   UNL     1      50.528  16.480  17.257  0.00  0.00    +0.207 A 
ATOM     10  C   UNL     1      51.445  17.233  16.591  0.00  0.00    -0.146 A 
ATOM     11  C   UNL     1      51.534  18.620  16.857  0.00  0.00    +0.425 A 
ATOM     12  C   UNL     1      50.612  19.179  17.861  0.00  0.00    -0.285 A 
ATOM     13  C   UNL     1      50.630  20.540  18.187  0.00  0.00    +0.242 A 
ATOM     16  C   UNL     1      49.748  21.026  19.134  0.00  0.00    -0.095 A 
ATOM     17  C   UNL     1      48.849  20.165  19.758  0.00  0.00    +0.207 A 
ATOM     34  C   UNL     1      48.829  18.816  19.443  0.00  0.00    -0.029 A 
ATOM     35  C   UNL     1      49.703  18.312  18.491  0.00  0.00    +0.201 A 
ATOM     36  O   UNL     1      52.343  19.326  16.278  0.00  0.00    -0.456 OA
ATOM     37  O   UNL     1      49.692  17.001  18.170  0.00  0.00    -0.217 OA
ENDROOT
BRANCH   9   8
ATOM      1  C   UNL     1      49.448  14.257  17.551  0.00  0.00    +0.080 A 
ATOM      2  C   UNL     1      49.375  12.909  17.273  0.00  0.00    -0.006 A 
ATOM      3  C   UNL     1      50.302  12.324  16.420  0.00  0.00    +0.135 A 
ATOM      6  C   UNL     1      51.303  13.094  15.840  0.00  0.00    -0.010 A 
ATOM      7  C   UNL     1      51.380  14.443  16.108  0.00  0.00    +0.080 A 
ATOM      8  C   UNL     1      50.450  15.036  16.966  0.00  0.00    -0.084 A 
BRANCH   3   4
ATOM      4  O   UNL     1      50.230  10.994  16.152  0.00  0.00    -0.497 OA
ATOM      5  H   UNL     1      51.068  10.606  15.867  0.00  0.00    +0.398 HD
ENDBRANCH   3   4
ENDBRANCH   9   8
BRANCH  13  14
ATOM     14  O   UNL     1      51.507  21.378  17.578  0.00  0.00    -0.470 OA
ATOM     15  H   UNL     1      51.978  21.965  18.186  0.00  0.00    +0.402 HD
ENDBRANCH  13  14
BRANCH  17  18
ATOM     18  O   UNL     1      47.988  20.652  20.687  0.00  0.00    -0.285 OA
BRANCH  18  19
ATOM     19  C   UNL     1      46.814  21.308  20.205  0.00  0.00    +0.305 C 
ATOM     20  C   UNL     1      46.186  22.127  21.335  0.00  0.00    +0.151 C 
ATOM     23  C   UNL     1      44.897  22.780  20.829  0.00  0.00    +0.166 C 
ATOM     26  C   UNL     1      43.955  21.687  20.308  0.00  0.00    +0.172 C 
ATOM     29  C   UNL     1      44.670  20.885  19.217  0.00  0.00    +0.194 C 
ATOM     33  O   UNL     1      45.876  20.332  19.747  0.00  0.00    -0.370 OA
BRANCH  20  21
ATOM     21  O   UNL     1      47.100  23.141  21.756  0.00  0.00    -0.553 OA
ATOM     22  H   UNL     1      46.761  24.042  21.660  0.00  0.00    +0.396 HD
ENDBRANCH  20  21
BRANCH  23  24
ATOM     24  O   UNL     1      44.266  23.487  21.899  0.00  0.00    -0.552 OA
ATOM     25  H   UNL     1      44.425  23.103  22.772  0.00  0.00    +0.397 HD
ENDBRANCH  23  24
BRANCH  26  27
ATOM     27  O   UNL     1      42.778  22.288  19.766  0.00  0.00    -0.548 OA
ATOM     28  H   UNL     1      42.094  22.476  20.423  0.00  0.00    +0.396 HD
ENDBRANCH  26  27
BRANCH  29  30
ATOM     30  C   UNL     1      43.759  19.755  18.735  0.00  0.00    +0.227 C 
BRANCH  30  31
ATOM     31  O   UNL     1      42.703  20.298  17.941  0.00  0.00    -0.564 OA
ATOM     32  H   UNL     1      42.067  20.828  18.441  0.00  0.00    +0.386 HD
ENDBRANCH  30  31
ENDBRANCH  29  30
ENDBRANCH  18  19
ENDBRANCH  17  18
TORSDOF 10
ENDMDL
MODEL 8
REMARK VINA RESULT:      -6.2      3.351     10.169
REMARK  Name = ZINC01530009
REMARK  10 active torsions:
REMARK  status: ('A' for Active; 'I' for Inactive)
REMARK    1  A    between atoms: C3_3  and  O10_36
REMARK    2  A    between atoms: C6_6  and  C7_7
REMARK    3  A    between atoms: C11_12  and  O9_35
REMARK    4  A    between atoms: C13_14  and  O3_18
REMARK    5  A    between atoms: O3_18  and  C16_19
REMARK    6  A    between atoms: C17_21  and  O8_34
REMARK    7  A    between atoms: C18_23  and  O7_33
REMARK    8  A    between atoms: C19_25  and  O6_32
REMARK    9  A    between atoms: C20_27  and  C21_30
REMARK   10  A    between atoms: C21_30  and  O5_31
REMARK                            x       y       z     vdW  Elec       q    Type
REMARK                         _______ _______ _______ _____ _____    ______ ____
ROOT
ATOM      9  C   UNL     1      46.583  14.099  18.313  0.00  0.00    +0.207 A 
ATOM     10  C   UNL     1      45.948  13.263  19.178  0.00  0.00    -0.146 A 
ATOM     11  C   UNL     1      45.292  13.798  20.311  0.00  0.00    +0.425 A 
ATOM     12  C   UNL     1      45.334  15.259  20.492  0.00  0.00    -0.285 A 
ATOM     13  C   UNL     1      44.711  15.875  21.585  0.00  0.00    +0.242 A 
ATOM     16  C   UNL     1      44.774  17.250  21.719  0.00  0.00    -0.095 A 
ATOM     17  C   UNL     1      45.452  18.014  20.773  0.00  0.00    +0.207 A 
ATOM     34  C   UNL     1      46.067  17.411  19.687  0.00  0.00    -0.029 A 
ATOM     35  C   UNL     1      46.019  16.033  19.539  0.00  0.00    +0.201 A 
ATOM     36  O   UNL     1      44.713  13.077  21.108  0.00  0.00    -0.456 OA
ATOM     37  O   UNL     1      46.616  15.430  18.489  0.00  0.00    -0.217 OA
ENDROOT
BRANCH   9   8
ATOM      1  C   UNL     1      48.499  14.029  16.724  0.00  0.00    +0.080 A 
ATOM      2  C   UNL     1      49.132  13.484  15.628  0.00  0.00    -0.006 A 
ATOM      3  C   UNL     1      48.539  12.440  14.929  0.00  0.00    +0.135 A 
ATOM      6  C   UNL     1      47.308  11.937  15.334  0.00  0.00    -0.010 A 
ATOM      7  C   UNL     1      46.670  12.472  16.431  0.00  0.00    +0.080 A 
ATOM      8  C   UNL     1      47.263  13.522  17.137  0.00  0.00    -0.084 A 
BRANCH   3   4
ATOM      4  O   UNL     1      49.164  11.909  13.846  0.00  0.00    -0.497 OA
ATOM      5  H   UNL     1      50.046  12.270  13.687  0.00  0.00    +0.398 HD
ENDBRANCH   3   4
ENDBRANCH   9   8
BRANCH  13  14
ATOM     14  O   UNL     1      44.051  15.129  22.505  0.00  0.00    -0.470 OA
ATOM     15  H   UNL     1      44.275  15.346  23.421  0.00  0.00    +0.402 HD
ENDBRANCH  13  14
BRANCH  17  18
ATOM     18  O   UNL     1      45.507  19.362  20.913  0.00  0.00    -0.285 OA
BRANCH  18  19
ATOM     19  C   UNL     1      44.756  20.143  19.981  0.00  0.00    +0.305 C 
ATOM     20  C   UNL     1      44.776  21.612  20.412  0.00  0.00    +0.151 C 
ATOM     23  C   UNL     1      43.922  22.434  19.443  0.00  0.00    +0.166 C 
ATOM     26  C   UNL     1      42.502  21.854  19.415  0.00  0.00    +0.172 C 
ATOM     29  C   UNL     1      42.570  20.376  19.022  0.00  0.00    +0.194 C 
ATOM     33  O   UNL     1      43.406  19.677  19.947  0.00  0.00    -0.370 OA
BRANCH  20  21
ATOM     21  O   UNL     1      46.120  22.097  20.393  0.00  0.00    -0.553 OA
ATOM     22  H   UNL     1      46.733  21.536  19.897  0.00  0.00    +0.396 HD
ENDBRANCH  20  21
BRANCH  23  24
ATOM     24  O   UNL     1      43.876  23.794  19.880  0.00  0.00    -0.552 OA
ATOM     25  H   UNL     1      44.619  24.331  19.572  0.00  0.00    +0.397 HD
ENDBRANCH  23  24
BRANCH  26  27
ATOM     27  O   UNL     1      41.713  22.566  18.461  0.00  0.00    -0.548 OA
ATOM     28  H   UNL     1      40.853  22.853  18.797  0.00  0.00    +0.396 HD
ENDBRANCH  26  27
BRANCH  29  30
ATOM     30  C   UNL     1      41.163  19.775  19.051  0.00  0.00    +0.227 C 
BRANCH  30  31
ATOM     31  O   UNL     1      40.344  20.522  19.951  0.00  0.00    -0.564 OA
ATOM     32  H   UNL     1      39.486  20.114  20.132  0.00  0.00    +0.386 HD
ENDBRANCH  30  31
ENDBRANCH  29  30
ENDBRANCH  18  19
ENDBRANCH  17  18
TORSDOF 10
ENDMDL
MODEL 9
REMARK VINA RESULT:      -5.9      2.788      5.229
REMARK  Name = ZINC01530009
REMARK  10 active torsions:
REMARK  status: ('A' for Active; 'I' for Inactive)
REMARK    1  A    between atoms: C3_3  and  O10_36
REMARK    2  A    between atoms: C6_6  and  C7_7
REMARK    3  A    between atoms: C11_12  and  O9_35
REMARK    4  A    between atoms: C13_14  and  O3_18
REMARK    5  A    between atoms: O3_18  and  C16_19
REMARK    6  A    between atoms: C17_21  and  O8_34
REMARK    7  A    between atoms: C18_23  and  O7_33
REMARK    8  A    between atoms: C19_25  and  O6_32
REMARK    9  A    between atoms: C20_27  and  C21_30
REMARK   10  A    between atoms: C21_30  and  O5_31
REMARK                            x       y       z     vdW  Elec       q    Type
REMARK                         _______ _______ _______ _____ _____    ______ ____
ROOT
ATOM      9  C   UNL     1      44.287  20.907  19.839  0.00  0.00    +0.207 A 
ATOM     10  C   UNL     1      44.785  21.957  20.547  0.00  0.00    -0.146 A 
ATOM     11  C   UNL     1      46.107  21.898  21.047  0.00  0.00    +0.425 A 
ATOM     12  C   UNL     1      46.884  20.678  20.765  0.00  0.00    -0.285 A 
ATOM     13  C   UNL     1      48.200  20.534  21.220  0.00  0.00    +0.242 A 
ATOM     16  C   UNL     1      48.896  19.373  20.935  0.00  0.00    -0.095 A 
ATOM     17  C   UNL     1      48.291  18.358  20.200  0.00  0.00    +0.207 A 
ATOM     34  C   UNL     1      46.990  18.497  19.742  0.00  0.00    -0.029 A 
ATOM     35  C   UNL     1      46.275  19.652  20.024  0.00  0.00    +0.201 A 
ATOM     36  O   UNL     1      46.585  22.820  21.687  0.00  0.00    -0.456 OA
ATOM     37  O   UNL     1      45.005  19.801  19.589  0.00  0.00    -0.217 OA
ENDROOT
BRANCH   9   8
ATOM      1  C   UNL     1      42.324  22.233  19.072  0.00  0.00    +0.080 A 
ATOM      2  C   UNL     1      41.036  22.303  18.589  0.00  0.00    -0.006 A 
ATOM      3  C   UNL     1      40.312  21.138  18.366  0.00  0.00    +0.135 A 
ATOM      6  C   UNL     1      40.884  19.899  18.622  0.00  0.00    -0.010 A 
ATOM      7  C   UNL     1      42.174  19.818  19.099  0.00  0.00    +0.080 A 
ATOM      8  C   UNL     1      42.906  20.987  19.327  0.00  0.00    -0.084 A 
BRANCH   3   4
ATOM      4  O   UNL     1      39.040  21.212  17.894  0.00  0.00    -0.497 OA
ATOM      5  H   UNL     1      38.982  21.438  16.957  0.00  0.00    +0.398 HD
ENDBRANCH   3   4
ENDBRANCH   9   8
BRANCH  13  14
ATOM     14  O   UNL     1      48.789  21.524  21.937  0.00  0.00    -0.470 OA
ATOM     15  H   UNL     1      48.691  21.429  22.894  0.00  0.00    +0.402 HD
ENDBRANCH  13  14
BRANCH  17  18
ATOM     18  O   UNL     1      48.983  17.224  19.923  0.00  0.00    -0.285 OA
BRANCH  18  19
ATOM     19  C   UNL     1      49.502  17.087  18.599  0.00  0.00    +0.305 C 
ATOM     20  C   UNL     1      50.165  15.715  18.450  0.00  0.00    +0.151 C 
ATOM     23  C   UNL     1      50.770  15.596  17.049  0.00  0.00    +0.166 C 
ATOM     26  C   UNL     1      51.758  16.749  16.833  0.00  0.00    +0.172 C 
ATOM     29  C   UNL     1      51.033  18.080  17.043  0.00  0.00    +0.194 C 
ATOM     33  O   UNL     1      50.467  18.111  18.355  0.00  0.00    -0.370 OA
BRANCH  20  21
ATOM     21  O   UNL     1      49.189  14.689  18.638  0.00  0.00    -0.553 OA
ATOM     22  H   UNL     1      49.276  13.947  18.023  0.00  0.00    +0.396 HD
ENDBRANCH  20  21
BRANCH  23  24
ATOM     24  O   UNL     1      51.455  14.348  16.927  0.00  0.00    -0.552 OA
ATOM     25  H   UNL     1      50.868  13.587  16.818  0.00  0.00    +0.397 HD
ENDBRANCH  23  24
BRANCH  26  27
ATOM     27  O   UNL     1      52.276  16.692  15.502  0.00  0.00    -0.548 OA
ATOM     28  H   UNL     1      53.233  16.824  15.446  0.00  0.00    +0.396 HD
ENDBRANCH  26  27
BRANCH  29  30
ATOM     30  C   UNL     1      52.026  19.234  16.888  0.00  0.00    +0.227 C 
BRANCH  30  31
ATOM     31  O   UNL     1      52.986  19.180  17.945  0.00  0.00    -0.564 OA
ATOM     32  H   UNL     1      53.378  20.037  18.163  0.00  0.00    +0.386 HD
ENDBRANCH  30  31
ENDBRANCH  29  30
ENDBRANCH  18  19
ENDBRANCH  17  18
TORSDOF 10
ENDMDL
