MODEL 1
REMARK VINA RESULT:      -6.4      0.000      0.000
REMARK  Name = ZINC13359242
REMARK  12 active torsions:
REMARK  status: ('A' for Active; 'I' for Inactive)
REMARK    1  A    between atoms: C1_1  and  C2_2
REMARK    2  A    between atoms: C4_4  and  O4_31
REMARK    3  A    between atoms: C7_7  and  C8_8
REMARK    4  A    between atoms: C9_9  and  O2_23
REMARK    5  A    between atoms: C11_11  and  O1_21
REMARK    6  A    between atoms: C15_15  and  C18_20
REMARK    7  A    between atoms: C16_18  and  C17_19
REMARK    8  A    between atoms: O1_21  and  C19_22
REMARK    9  A    between atoms: O2_23  and  C20_24
REMARK   10  A    between atoms: C24_28  and  O3_29
REMARK   11  A    between atoms: O3_29  and  C25_30
REMARK   12  A    between atoms: O4_31  and  C26_32
REMARK                            x       y       z     vdW  Elec       q    Type
REMARK                         _______ _______ _______ _____ _____    ______ ____
ROOT
ATOM     16  C   UNL     1      45.094  19.897  20.348  0.00  0.00    -0.099 A 
ATOM     17  C   UNL     1      46.131  20.571  21.012  0.00  0.00    +0.201 A 
ATOM     20  C   UNL     1      46.136  21.955  21.075  0.00  0.00    -0.170 A 
ATOM     21  C   UNL     1      45.117  22.686  20.482  0.00  0.00    +0.209 A 
ATOM     24  C   UNL     1      44.080  22.019  19.818  0.00  0.00    -0.187 A 
ATOM     25  C   UNL     1      42.983  22.759  19.175  0.00  0.00    +0.230 C 
ATOM     26  C   UNL     1      43.149  24.220  18.842  0.00  0.00    +0.138 C 
ATOM     27  N   UNL     1      41.875  22.153  18.897  0.00  0.00    -0.524 NA
ATOM     28  C   UNL     1      41.659  20.745  19.214  0.00  0.00    +0.151 C 
ATOM     29  C   UNL     1      40.578  20.183  18.289  0.00  0.00    +0.052 C 
ATOM     30  C   UNL     1      42.942  19.935  19.035  0.00  0.00    +0.077 C 
ATOM     31  C   UNL     1      44.073  20.622  19.754  0.00  0.00    +0.028 A 
ENDROOT
BRANCH  16  15
ATOM      1  C   UNL     1      43.856  18.386  22.456  0.00  0.00    +0.093 C 
ATOM      2  C   UNL     1      44.497  17.677  21.291  0.00  0.00    -0.007 A 
ATOM      3  C   UNL     1      44.487  16.289  21.241  0.00  0.00    -0.105 A 
ATOM      4  C   UNL     1      45.066  15.614  20.189  0.00  0.00    +0.174 A 
ATOM      7  C   UNL     1      45.680  16.336  19.145  0.00  0.00    -0.099 A 
ATOM      8  C   UNL     1      45.689  17.751  19.187  0.00  0.00    +0.043 A 
ATOM      9  C   UNL     1      46.294  18.469  18.145  0.00  0.00    -0.031 A 
ATOM     10  C   UNL     1      46.862  17.804  17.101  0.00  0.00    +0.066 A 
ATOM     11  C   UNL     1      46.854  16.414  17.046  0.00  0.00    -0.113 A 
ATOM     12  C   UNL     1      46.280  15.674  18.056  0.00  0.00    +0.169 A 
ATOM     15  C   UNL     1      45.091  18.417  20.283  0.00  0.00    -0.075 A 
BRANCH   4   5
ATOM      5  O   UNL     1      45.046  14.257  20.157  0.00  0.00    -0.290 OA
ATOM      6  C   UNL     1      45.396  13.574  21.363  0.00  0.00    +0.238 C 
ENDBRANCH   4   5
BRANCH  12  13
ATOM     13  O   UNL     1      46.278  14.317  17.995  0.00  0.00    -0.291 OA
ATOM     14  C   UNL     1      46.765  13.721  16.791  0.00  0.00    +0.237 C 
ENDBRANCH  12  13
ENDBRANCH  16  15
BRANCH  17  18
ATOM     18  O   UNL     1      47.133  19.865  21.594  0.00  0.00    -0.297 OA
ATOM     19  C   UNL     1      48.430  19.972  21.005  0.00  0.00    +0.241 C 
ENDBRANCH  17  18
BRANCH  21  22
ATOM     22  O   UNL     1      45.123  24.040  20.550  0.00  0.00    -0.299 OA
ATOM     23  C   UNL     1      46.248  24.654  21.181  0.00  0.00    +0.239 C 
ENDBRANCH  21  22
TORSDOF 5
ENDMDL
MODEL 2
REMARK VINA RESULT:      -6.1      1.639      3.410
REMARK  Name = ZINC13359242
REMARK  12 active torsions:
REMARK  status: ('A' for Active; 'I' for Inactive)
REMARK    1  A    between atoms: C1_1  and  C2_2
REMARK    2  A    between atoms: C4_4  and  O4_31
REMARK    3  A    between atoms: C7_7  and  C8_8
REMARK    4  A    between atoms: C9_9  and  O2_23
REMARK    5  A    between atoms: C11_11  and  O1_21
REMARK    6  A    between atoms: C15_15  and  C18_20
REMARK    7  A    between atoms: C16_18  and  C17_19
REMARK    8  A    between atoms: O1_21  and  C19_22
REMARK    9  A    between atoms: O2_23  and  C20_24
REMARK   10  A    between atoms: C24_28  and  O3_29
REMARK   11  A    between atoms: O3_29  and  C25_30
REMARK   12  A    between atoms: O4_31  and  C26_32
REMARK                            x       y       z     vdW  Elec       q    Type
REMARK                         _______ _______ _______ _____ _____    ______ ____
ROOT
ATOM     16  C   UNL     1      44.851  19.728  20.212  0.00  0.00    -0.099 A 
ATOM     17  C   UNL     1      43.778  20.373  19.577  0.00  0.00    +0.201 A 
ATOM     20  C   UNL     1      43.717  21.756  19.540  0.00  0.00    -0.170 A 
ATOM     21  C   UNL     1      44.716  22.516  20.131  0.00  0.00    +0.209 A 
ATOM     24  C   UNL     1      45.790  21.879  20.766  0.00  0.00    -0.187 A 
ATOM     25  C   UNL     1      46.868  22.651  21.404  0.00  0.00    +0.230 C 
ATOM     26  C   UNL     1      46.650  24.097  21.767  0.00  0.00    +0.138 C 
ATOM     27  N   UNL     1      48.003  22.084  21.653  0.00  0.00    -0.524 NA
ATOM     28  C   UNL     1      48.269  20.691  21.307  0.00  0.00    +0.151 C 
ATOM     29  C   UNL     1      49.387  20.156  22.203  0.00  0.00    +0.052 C 
ATOM     30  C   UNL     1      47.022  19.828  21.491  0.00  0.00    +0.077 C 
ATOM     31  C   UNL     1      45.853  20.483  20.803  0.00  0.00    +0.028 A 
ENDROOT
BRANCH  16  15
ATOM      1  C   UNL     1      43.679  18.312  22.422  0.00  0.00    +0.093 C 
ATOM      2  C   UNL     1      44.353  17.555  21.307  0.00  0.00    -0.007 A 
ATOM      3  C   UNL     1      44.405  16.167  21.353  0.00  0.00    -0.105 A 
ATOM      4  C   UNL     1      45.015  15.448  20.349  0.00  0.00    +0.174 A 
ATOM      7  C   UNL     1      45.597  16.123  19.257  0.00  0.00    -0.099 A 
ATOM      8  C   UNL     1      45.543  17.536  19.200  0.00  0.00    +0.043 A 
ATOM      9  C   UNL     1      46.116  18.207  18.111  0.00  0.00    -0.031 A 
ATOM     10  C   UNL     1      46.715  17.498  17.114  0.00  0.00    +0.066 A 
ATOM     11  C   UNL     1      46.769  16.108  17.155  0.00  0.00    -0.113 A 
ATOM     12  C   UNL     1      46.228  15.414  18.215  0.00  0.00    +0.169 A 
ATOM     15  C   UNL     1      44.914  18.249  20.249  0.00  0.00    -0.075 A 
BRANCH   4   5
ATOM      5  O   UNL     1      45.056  14.092  20.411  0.00  0.00    -0.290 OA
ATOM      6  C   UNL     1      45.445  13.511  21.657  0.00  0.00    +0.238 C 
ENDBRANCH   4   5
BRANCH  12  13
ATOM     13  O   UNL     1      46.286  14.058  18.248  0.00  0.00    -0.291 OA
ATOM     14  C   UNL     1      46.550  13.390  17.012  0.00  0.00    +0.237 C 
ENDBRANCH  12  13
ENDBRANCH  16  15
BRANCH  17  18
ATOM     18  O   UNL     1      42.795  19.638  18.998  0.00  0.00    -0.297 OA
ATOM     19  C   UNL     1      41.513  19.655  19.631  0.00  0.00    +0.241 C 
ENDBRANCH  17  18
BRANCH  21  22
ATOM     22  O   UNL     1      44.656  23.870  20.087  0.00  0.00    -0.299 OA
ATOM     23  C   UNL     1      44.395  24.469  18.817  0.00  0.00    +0.239 C 
ENDBRANCH  21  22
TORSDOF 5
ENDMDL
MODEL 3
REMARK VINA RESULT:      -5.4      3.440      7.444
REMARK  Name = ZINC13359242
REMARK  12 active torsions:
REMARK  status: ('A' for Active; 'I' for Inactive)
REMARK    1  A    between atoms: C1_1  and  C2_2
REMARK    2  A    between atoms: C4_4  and  O4_31
REMARK    3  A    between atoms: C7_7  and  C8_8
REMARK    4  A    between atoms: C9_9  and  O2_23
REMARK    5  A    between atoms: C11_11  and  O1_21
REMARK    6  A    between atoms: C15_15  and  C18_20
REMARK    7  A    between atoms: C16_18  and  C17_19
REMARK    8  A    between atoms: O1_21  and  C19_22
REMARK    9  A    between atoms: O2_23  and  C20_24
REMARK   10  A    between atoms: C24_28  and  O3_29
REMARK   11  A    between atoms: O3_29  and  C25_30
REMARK   12  A    between atoms: O4_31  and  C26_32
REMARK                            x       y       z     vdW  Elec       q    Type
REMARK                         _______ _______ _______ _____ _____    ______ ____
ROOT
ATOM     16  C   UNL     1      48.765  18.950  20.586  0.00  0.00    -0.099 A 
ATOM     17  C   UNL     1      48.704  17.903  21.519  0.00  0.00    +0.201 A 
ATOM     20  C   UNL     1      49.595  16.846  21.441  0.00  0.00    -0.170 A 
ATOM     21  C   UNL     1      50.555  16.812  20.440  0.00  0.00    +0.209 A 
ATOM     24  C   UNL     1      50.621  17.854  19.506  0.00  0.00    -0.187 A 
ATOM     25  C   UNL     1      51.624  17.853  18.430  0.00  0.00    +0.230 C 
ATOM     26  C   UNL     1      52.314  16.572  18.040  0.00  0.00    +0.138 C 
ATOM     27  N   UNL     1      51.912  18.956  17.819  0.00  0.00    -0.524 NA
ATOM     28  C   UNL     1      51.284  20.226  18.171  0.00  0.00    +0.151 C 
ATOM     29  C   UNL     1      51.356  21.171  16.970  0.00  0.00    +0.052 C 
ATOM     30  C   UNL     1      49.822  20.028  18.566  0.00  0.00    +0.077 C 
ATOM     31  C   UNL     1      49.723  18.922  19.584  0.00  0.00    +0.028 A 
ENDROOT
BRANCH  16  15
ATOM      1  C   UNL     1      49.449  21.271  22.136  0.00  0.00    +0.093 C 
ATOM      2  C   UNL     1      48.128  21.204  21.414  0.00  0.00    -0.007 A 
ATOM      3  C   UNL     1      47.242  22.270  21.503  0.00  0.00    -0.105 A 
ATOM      4  C   UNL     1      46.027  22.236  20.854  0.00  0.00    +0.174 A 
ATOM      7  C   UNL     1      45.672  21.107  20.089  0.00  0.00    -0.099 A 
ATOM      8  C   UNL     1      46.572  20.019  19.990  0.00  0.00    +0.043 A 
ATOM      9  C   UNL     1      46.221  18.898  19.224  0.00  0.00    -0.031 A 
ATOM     10  C   UNL     1      45.022  18.865  18.577  0.00  0.00    +0.066 A 
ATOM     11  C   UNL     1      44.132  19.931  18.662  0.00  0.00    -0.113 A 
ATOM     12  C   UNL     1      44.436  21.044  19.414  0.00  0.00    +0.169 A 
ATOM     15  C   UNL     1      47.811  20.080  20.672  0.00  0.00    -0.075 A 
BRANCH   4   5
ATOM      5  O   UNL     1      45.174  23.288  20.951  0.00  0.00    -0.290 OA
ATOM      6  C   UNL     1      45.739  24.595  20.831  0.00  0.00    +0.238 C 
ENDBRANCH   4   5
BRANCH  12  13
ATOM     13  O   UNL     1      43.561  22.079  19.493  0.00  0.00    -0.291 OA
ATOM     14  C   UNL     1      42.207  21.813  19.118  0.00  0.00    +0.237 C 
ENDBRANCH  12  13
ENDBRANCH  16  15
BRANCH  17  18
ATOM     18  O   UNL     1      47.767  17.925  22.501  0.00  0.00    -0.297 OA
ATOM     19  C   UNL     1      46.748  16.925  22.449  0.00  0.00    +0.241 C 
ENDBRANCH  17  18
BRANCH  21  22
ATOM     22  O   UNL     1      51.430  15.778  20.371  0.00  0.00    -0.299 OA
ATOM     23  C   UNL     1      50.988  14.518  20.879  0.00  0.00    +0.239 C 
ENDBRANCH  21  22
TORSDOF 5
ENDMDL
MODEL 4
REMARK VINA RESULT:      -5.2      3.191      6.861
REMARK  Name = ZINC13359242
REMARK  12 active torsions:
REMARK  status: ('A' for Active; 'I' for Inactive)
REMARK    1  A    between atoms: C1_1  and  C2_2
REMARK    2  A    between atoms: C4_4  and  O4_31
REMARK    3  A    between atoms: C7_7  and  C8_8
REMARK    4  A    between atoms: C9_9  and  O2_23
REMARK    5  A    between atoms: C11_11  and  O1_21
REMARK    6  A    between atoms: C15_15  and  C18_20
REMARK    7  A    between atoms: C16_18  and  C17_19
REMARK    8  A    between atoms: O1_21  and  C19_22
REMARK    9  A    between atoms: O2_23  and  C20_24
REMARK   10  A    between atoms: C24_28  and  O3_29
REMARK   11  A    between atoms: O3_29  and  C25_30
REMARK   12  A    between atoms: O4_31  and  C26_32
REMARK                            x       y       z     vdW  Elec       q    Type
REMARK                         _______ _______ _______ _____ _____    ______ ____
ROOT
ATOM     16  C   UNL     1      47.865  16.820  20.122  0.00  0.00    -0.099 A 
ATOM     17  C   UNL     1      48.144  15.550  20.653  0.00  0.00    +0.201 A 
ATOM     20  C   UNL     1      47.161  14.843  21.325  0.00  0.00    -0.170 A 
ATOM     21  C   UNL     1      45.893  15.384  21.480  0.00  0.00    +0.209 A 
ATOM     24  C   UNL     1      45.608  16.649  20.953  0.00  0.00    -0.187 A 
ATOM     25  C   UNL     1      44.276  17.256  21.098  0.00  0.00    +0.230 C 
ATOM     26  C   UNL     1      43.325  16.751  22.153  0.00  0.00    +0.138 C 
ATOM     27  N   UNL     1      43.922  18.225  20.317  0.00  0.00    -0.524 NA
ATOM     28  C   UNL     1      44.799  18.738  19.270  0.00  0.00    +0.151 C 
ATOM     29  C   UNL     1      44.393  20.175  18.935  0.00  0.00    +0.052 C 
ATOM     30  C   UNL     1      46.260  18.722  19.716  0.00  0.00    +0.077 C 
ATOM     31  C   UNL     1      46.599  17.364  20.273  0.00  0.00    +0.028 A 
ENDROOT
BRANCH  16  15
ATOM      1  C   UNL     1      48.200  16.442  17.293  0.00  0.00    +0.093 C 
ATOM      2  C   UNL     1      49.089  17.402  18.041  0.00  0.00    -0.007 A 
ATOM      3  C   UNL     1      50.073  18.103  17.355  0.00  0.00    -0.105 A 
ATOM      4  C   UNL     1      50.902  18.986  18.012  0.00  0.00    +0.174 A 
ATOM      7  C   UNL     1      50.755  19.185  19.400  0.00  0.00    -0.099 A 
ATOM      8  C   UNL     1      49.751  18.478  20.104  0.00  0.00    +0.043 A 
ATOM      9  C   UNL     1      49.601  18.681  21.484  0.00  0.00    -0.031 A 
ATOM     10  C   UNL     1      50.414  19.558  22.135  0.00  0.00    +0.066 A 
ATOM     11  C   UNL     1      51.401  20.263  21.452  0.00  0.00    -0.113 A 
ATOM     12  C   UNL     1      51.587  20.082  20.100  0.00  0.00    +0.169 A 
ATOM     15  C   UNL     1      48.918  17.573  19.403  0.00  0.00    -0.075 A 
BRANCH   4   5
ATOM      5  O   UNL     1      51.857  19.663  17.326  0.00  0.00    -0.290 OA
ATOM      6  C   UNL     1      51.957  19.403  15.924  0.00  0.00    +0.238 C 
ENDBRANCH   4   5
BRANCH  12  13
ATOM     13  O   UNL     1      52.553  20.773  19.442  0.00  0.00    -0.291 OA
ATOM     14  C   UNL     1      52.952  22.024  20.005  0.00  0.00    +0.237 C 
ENDBRANCH  12  13
ENDBRANCH  16  15
BRANCH  17  18
ATOM     18  O   UNL     1      49.382  15.013  20.508  0.00  0.00    -0.297 OA
ATOM     19  C   UNL     1      50.168  14.866  21.692  0.00  0.00    +0.241 C 
ENDBRANCH  17  18
BRANCH  21  22
ATOM     22  O   UNL     1      44.931  14.685  22.134  0.00  0.00    -0.299 OA
ATOM     23  C   UNL     1      45.153  13.286  22.315  0.00  0.00    +0.239 C 
ENDBRANCH  21  22
TORSDOF 5
ENDMDL
MODEL 5
REMARK VINA RESULT:      -5.2      3.693      7.495
REMARK  Name = ZINC13359242
REMARK  12 active torsions:
REMARK  status: ('A' for Active; 'I' for Inactive)
REMARK    1  A    between atoms: C1_1  and  C2_2
REMARK    2  A    between atoms: C4_4  and  O4_31
REMARK    3  A    between atoms: C7_7  and  C8_8
REMARK    4  A    between atoms: C9_9  and  O2_23
REMARK    5  A    between atoms: C11_11  and  O1_21
REMARK    6  A    between atoms: C15_15  and  C18_20
REMARK    7  A    between atoms: C16_18  and  C17_19
REMARK    8  A    between atoms: O1_21  and  C19_22
REMARK    9  A    between atoms: O2_23  and  C20_24
REMARK   10  A    between atoms: C24_28  and  O3_29
REMARK   11  A    between atoms: O3_29  and  C25_30
REMARK   12  A    between atoms: O4_31  and  C26_32
REMARK                            x       y       z     vdW  Elec       q    Type
REMARK                         _______ _______ _______ _____ _____    ______ ____
ROOT
ATOM     16  C   UNL     1      48.641  18.067  20.083  0.00  0.00    -0.099 A 
ATOM     17  C   UNL     1      48.611  17.101  21.102  0.00  0.00    +0.201 A 
ATOM     20  C   UNL     1      49.758  16.398  21.430  0.00  0.00    -0.170 A 
ATOM     21  C   UNL     1      50.945  16.640  20.755  0.00  0.00    +0.209 A 
ATOM     24  C   UNL     1      50.981  17.601  19.738  0.00  0.00    -0.187 A 
ATOM     25  C   UNL     1      52.220  17.886  18.998  0.00  0.00    +0.230 C 
ATOM     26  C   UNL     1      53.351  16.890  19.005  0.00  0.00    +0.138 C 
ATOM     27  N   UNL     1      52.336  18.993  18.340  0.00  0.00    -0.524 NA
ATOM     28  C   UNL     1      51.277  19.997  18.315  0.00  0.00    +0.151 C 
ATOM     29  C   UNL     1      51.431  20.858  17.060  0.00  0.00    +0.052 C 
ATOM     30  C   UNL     1      49.897  19.343  18.309  0.00  0.00    +0.077 C 
ATOM     31  C   UNL     1      49.824  18.314  19.406  0.00  0.00    +0.028 A 
ENDROOT
BRANCH  16  15
ATOM      1  C   UNL     1      46.788  16.961  18.185  0.00  0.00    +0.093 C 
ATOM      2  C   UNL     1      46.512  18.298  18.823  0.00  0.00    -0.007 A 
ATOM      3  C   UNL     1      45.357  18.993  18.489  0.00  0.00    -0.105 A 
ATOM      4  C   UNL     1      45.079  20.218  19.056  0.00  0.00    +0.174 A 
ATOM      7  C   UNL     1      45.975  20.779  19.988  0.00  0.00    -0.099 A 
ATOM      8  C   UNL     1      47.151  20.073  20.338  0.00  0.00    +0.043 A 
ATOM      9  C   UNL     1      48.039  20.628  21.270  0.00  0.00    -0.031 A 
ATOM     10  C   UNL     1      47.763  21.836  21.837  0.00  0.00    +0.066 A 
ATOM     11  C   UNL     1      46.608  22.537  21.505  0.00  0.00    -0.113 A 
ATOM     12  C   UNL     1      45.717  22.029  20.584  0.00  0.00    +0.169 A 
ATOM     15  C   UNL     1      47.413  18.819  19.735  0.00  0.00    -0.075 A 
BRANCH   4   5
ATOM      5  O   UNL     1      43.945  20.883  18.717  0.00  0.00    -0.290 OA
ATOM      6  C   UNL     1      42.722  20.146  18.761  0.00  0.00    +0.238 C 
ENDBRANCH   4   5
BRANCH  12  13
ATOM     13  O   UNL     1      44.593  22.720  20.266  0.00  0.00    -0.291 OA
ATOM     14  C   UNL     1      44.769  23.999  19.653  0.00  0.00    +0.237 C 
ENDBRANCH  12  13
ENDBRANCH  16  15
BRANCH  17  18
ATOM     18  O   UNL     1      47.454  16.856  21.768  0.00  0.00    -0.297 OA
ATOM     19  C   UNL     1      46.931  15.528  21.694  0.00  0.00    +0.241 C 
ENDBRANCH  17  18
BRANCH  21  22
ATOM     22  O   UNL     1      52.067  15.952  21.083  0.00  0.00    -0.299 OA
ATOM     23  C   UNL     1      52.379  15.843  22.473  0.00  0.00    +0.239 C 
ENDBRANCH  21  22
TORSDOF 5
ENDMDL
MODEL 6
REMARK VINA RESULT:      -5.0      3.279      6.319
REMARK  Name = ZINC13359242
REMARK  12 active torsions:
REMARK  status: ('A' for Active; 'I' for Inactive)
REMARK    1  A    between atoms: C1_1  and  C2_2
REMARK    2  A    between atoms: C4_4  and  O4_31
REMARK    3  A    between atoms: C7_7  and  C8_8
REMARK    4  A    between atoms: C9_9  and  O2_23
REMARK    5  A    between atoms: C11_11  and  O1_21
REMARK    6  A    between atoms: C15_15  and  C18_20
REMARK    7  A    between atoms: C16_18  and  C17_19
REMARK    8  A    between atoms: O1_21  and  C19_22
REMARK    9  A    between atoms: O2_23  and  C20_24
REMARK   10  A    between atoms: C24_28  and  O3_29
REMARK   11  A    between atoms: O3_29  and  C25_30
REMARK   12  A    between atoms: O4_31  and  C26_32
REMARK                            x       y       z     vdW  Elec       q    Type
REMARK                         _______ _______ _______ _____ _____    ______ ____
ROOT
ATOM     16  C   UNL     1      47.974  17.930  20.953  0.00  0.00    -0.099 A 
ATOM     17  C   UNL     1      48.379  16.762  21.619  0.00  0.00    +0.201 A 
ATOM     20  C   UNL     1      47.436  15.883  22.122  0.00  0.00    -0.170 A 
ATOM     21  C   UNL     1      46.082  16.148  21.973  0.00  0.00    +0.209 A 
ATOM     24  C   UNL     1      45.671  17.310  21.310  0.00  0.00    -0.187 A 
ATOM     25  C   UNL     1      44.245  17.626  21.133  0.00  0.00    +0.230 C 
ATOM     26  C   UNL     1      43.210  16.961  22.003  0.00  0.00    +0.138 C 
ATOM     27  N   UNL     1      43.883  18.478  20.229  0.00  0.00    -0.524 NA
ATOM     28  C   UNL     1      44.845  19.136  19.352  0.00  0.00    +0.151 C 
ATOM     29  C   UNL     1      44.243  20.445  18.839  0.00  0.00    +0.052 C 
ATOM     30  C   UNL     1      46.148  19.440  20.089  0.00  0.00    +0.077 C 
ATOM     31  C   UNL     1      46.623  18.199  20.800  0.00  0.00    +0.028 A 
ENDROOT
BRANCH  16  15
ATOM      1  C   UNL     1      48.755  20.219  22.505  0.00  0.00    +0.093 C 
ATOM      2  C   UNL     1      49.371  19.974  21.152  0.00  0.00    -0.007 A 
ATOM      3  C   UNL     1      50.319  20.862  20.658  0.00  0.00    -0.105 A 
ATOM      4  C   UNL     1      50.898  20.665  19.424  0.00  0.00    +0.174 A 
ATOM      7  C   UNL     1      50.528  19.549  18.646  0.00  0.00    -0.099 A 
ATOM      8  C   UNL     1      49.567  18.637  19.145  0.00  0.00    +0.043 A 
ATOM      9  C   UNL     1      49.204  17.524  18.374  0.00  0.00    -0.031 A 
ATOM     10  C   UNL     1      49.780  17.324  17.156  0.00  0.00    +0.066 A 
ATOM     11  C   UNL     1      50.730  18.210  16.657  0.00  0.00    -0.113 A 
ATOM     12  C   UNL     1      51.104  19.321  17.380  0.00  0.00    +0.169 A 
ATOM     15  C   UNL     1      48.985  18.869  20.414  0.00  0.00    -0.075 A 
BRANCH   4   5
ATOM      5  O   UNL     1      51.823  21.543  18.958  0.00  0.00    -0.290 OA
ATOM      6  C   UNL     1      52.839  21.961  19.871  0.00  0.00    +0.238 C 
ENDBRANCH   4   5
BRANCH  12  13
ATOM     13  O   UNL     1      52.030  20.181  16.885  0.00  0.00    -0.291 OA
ATOM     14  C   UNL     1      51.689  20.884  15.689  0.00  0.00    +0.237 C 
ENDBRANCH  12  13
ENDBRANCH  16  15
BRANCH  17  18
ATOM     18  O   UNL     1      49.701  16.495  21.771  0.00  0.00    -0.297 OA
ATOM     19  C   UNL     1      50.045  15.314  22.498  0.00  0.00    +0.241 C 
ENDBRANCH  17  18
BRANCH  21  22
ATOM     22  O   UNL     1      45.161  15.280  22.463  0.00  0.00    -0.299 OA
ATOM     23  C   UNL     1      45.415  13.888  22.272  0.00  0.00    +0.239 C 
ENDBRANCH  21  22
TORSDOF 5
ENDMDL
MODEL 7
REMARK VINA RESULT:      -4.9      5.381      9.411
REMARK  Name = ZINC13359242
REMARK  12 active torsions:
REMARK  status: ('A' for Active; 'I' for Inactive)
REMARK    1  A    between atoms: C1_1  and  C2_2
REMARK    2  A    between atoms: C4_4  and  O4_31
REMARK    3  A    between atoms: C7_7  and  C8_8
REMARK    4  A    between atoms: C9_9  and  O2_23
REMARK    5  A    between atoms: C11_11  and  O1_21
REMARK    6  A    between atoms: C15_15  and  C18_20
REMARK    7  A    between atoms: C16_18  and  C17_19
REMARK    8  A    between atoms: O1_21  and  C19_22
REMARK    9  A    between atoms: O2_23  and  C20_24
REMARK   10  A    between atoms: C24_28  and  O3_29
REMARK   11  A    between atoms: O3_29  and  C25_30
REMARK   12  A    between atoms: O4_31  and  C26_32
REMARK                            x       y       z     vdW  Elec       q    Type
REMARK                         _______ _______ _______ _____ _____    ______ ____
ROOT
ATOM     16  C   UNL     1      49.697  15.645  17.898  0.00  0.00    -0.099 A 
ATOM     17  C   UNL     1      48.503  15.498  17.173  0.00  0.00    +0.201 A 
ATOM     20  C   UNL     1      48.305  14.385  16.374  0.00  0.00    -0.170 A 
ATOM     21  C   UNL     1      49.284  13.406  16.281  0.00  0.00    +0.209 A 
ATOM     24  C   UNL     1      50.477  13.547  17.001  0.00  0.00    -0.187 A 
ATOM     25  C   UNL     1      51.539  12.532  16.928  0.00  0.00    +0.230 C 
ATOM     26  C   UNL     1      51.570  11.551  15.784  0.00  0.00    +0.138 C 
ATOM     27  N   UNL     1      52.446  12.483  17.848  0.00  0.00    -0.524 NA
ATOM     28  C   UNL     1      52.451  13.400  18.984  0.00  0.00    +0.151 C 
ATOM     29  C   UNL     1      53.873  13.503  19.539  0.00  0.00    +0.052 C 
ATOM     30  C   UNL     1      51.971  14.791  18.573  0.00  0.00    +0.077 C 
ATOM     31  C   UNL     1      50.678  14.670  17.810  0.00  0.00    +0.028 A 
ENDROOT
BRANCH  16  15
ATOM      1  C   UNL     1      48.869  15.581  20.649  0.00  0.00    +0.093 C 
ATOM      2  C   UNL     1      49.513  16.819  20.080  0.00  0.00    -0.007 A 
ATOM      3  C   UNL     1      49.705  17.929  20.892  0.00  0.00    -0.105 A 
ATOM      4  C   UNL     1      50.290  19.075  20.399  0.00  0.00    +0.174 A 
ATOM      7  C   UNL     1      50.703  19.128  19.052  0.00  0.00    -0.099 A 
ATOM      8  C   UNL     1      50.516  17.997  18.220  0.00  0.00    +0.043 A 
ATOM      9  C   UNL     1      50.932  18.048  16.881  0.00  0.00    -0.031 A 
ATOM     10  C   UNL     1      51.516  19.177  16.393  0.00  0.00    +0.066 A 
ATOM     11  C   UNL     1      51.710  20.292  17.203  0.00  0.00    -0.113 A 
ATOM     12  C   UNL     1      51.304  20.285  18.519  0.00  0.00    +0.169 A 
ATOM     15  C   UNL     1      49.907  16.837  18.753  0.00  0.00    -0.075 A 
BRANCH   4   5
ATOM      5  O   UNL     1      50.469  20.150  21.207  0.00  0.00    -0.290 OA
ATOM      6  C   UNL     1      51.015  19.903  22.504  0.00  0.00    +0.238 C 
ENDBRANCH   4   5
BRANCH  12  13
ATOM     13  O   UNL     1      51.496  21.377  19.301  0.00  0.00    -0.291 OA
ATOM     14  C   UNL     1      52.845  21.695  19.652  0.00  0.00    +0.237 C 
ENDBRANCH  12  13
ENDBRANCH  16  15
BRANCH  17  18
ATOM     18  O   UNL     1      47.540  16.450  17.256  0.00  0.00    -0.297 OA
ATOM     19  C   UNL     1      46.323  16.088  17.910  0.00  0.00    +0.241 C 
ENDBRANCH  17  18
BRANCH  21  22
ATOM     22  O   UNL     1      49.083  12.315  15.501  0.00  0.00    -0.299 OA
ATOM     23  C   UNL     1      48.270  12.487  14.340  0.00  0.00    +0.239 C 
ENDBRANCH  21  22
TORSDOF 5
ENDMDL
MODEL 8
REMARK VINA RESULT:      -4.8      3.969      7.688
REMARK  Name = ZINC13359242
REMARK  12 active torsions:
REMARK  status: ('A' for Active; 'I' for Inactive)
REMARK    1  A    between atoms: C1_1  and  C2_2
REMARK    2  A    between atoms: C4_4  and  O4_31
REMARK    3  A    between atoms: C7_7  and  C8_8
REMARK    4  A    between atoms: C9_9  and  O2_23
REMARK    5  A    between atoms: C11_11  and  O1_21
REMARK    6  A    between atoms: C15_15  and  C18_20
REMARK    7  A    between atoms: C16_18  and  C17_19
REMARK    8  A    between atoms: O1_21  and  C19_22
REMARK    9  A    between atoms: O2_23  and  C20_24
REMARK   10  A    between atoms: C24_28  and  O3_29
REMARK   11  A    between atoms: O3_29  and  C25_30
REMARK   12  A    between atoms: O4_31  and  C26_32
REMARK                            x       y       z     vdW  Elec       q    Type
REMARK                         _______ _______ _______ _____ _____    ______ ____
ROOT
ATOM     16  C   UNL     1      49.225  17.761  19.078  0.00  0.00    -0.099 A 
ATOM     17  C   UNL     1      50.359  18.141  18.343  0.00  0.00    +0.201 A 
ATOM     20  C   UNL     1      51.514  17.378  18.398  0.00  0.00    -0.170 A 
ATOM     21  C   UNL     1      51.559  16.233  19.180  0.00  0.00    +0.209 A 
ATOM     24  C   UNL     1      50.432  15.849  19.915  0.00  0.00    -0.187 A 
ATOM     25  C   UNL     1      50.441  14.642  20.756  0.00  0.00    +0.230 C 
ATOM     26  C   UNL     1      51.750  14.031  21.188  0.00  0.00    +0.138 C 
ATOM     27  N   UNL     1      49.324  14.106  21.125  0.00  0.00    -0.524 NA
ATOM     28  C   UNL     1      48.031  14.649  20.720  0.00  0.00    +0.151 C 
ATOM     29  C   UNL     1      46.965  14.212  21.727  0.00  0.00    +0.052 C 
ATOM     30  C   UNL     1      48.067  16.175  20.660  0.00  0.00    +0.077 C 
ATOM     31  C   UNL     1      49.264  16.617  19.860  0.00  0.00    +0.028 A 
ENDROOT
BRANCH  16  15
ATOM      1  C   UNL     1      47.159  17.075  17.200  0.00  0.00    +0.093 C 
ATOM      2  C   UNL     1      46.988  18.258  18.117  0.00  0.00    -0.007 A 
ATOM      3  C   UNL     1      45.825  19.016  18.051  0.00  0.00    -0.105 A 
ATOM      4  C   UNL     1      45.641  20.103  18.876  0.00  0.00    +0.174 A 
ATOM      7  C   UNL     1      46.642  20.457  19.804  0.00  0.00    -0.099 A 
ATOM      8  C   UNL     1      47.827  19.686  19.881  0.00  0.00    +0.043 A 
ATOM      9  C   UNL     1      48.819  20.035  20.808  0.00  0.00    -0.031 A 
ATOM     10  C   UNL     1      48.637  21.106  21.629  0.00  0.00    +0.066 A 
ATOM     11  C   UNL     1      47.474  21.868  21.566  0.00  0.00    -0.113 A 
ATOM     12  C   UNL     1      46.482  21.564  20.661  0.00  0.00    +0.169 A 
ATOM     15  C   UNL     1      47.990  18.578  19.016  0.00  0.00    -0.075 A 
BRANCH   4   5
ATOM      5  O   UNL     1      44.499  20.832  18.797  0.00  0.00    -0.290 OA
ATOM      6  C   UNL     1      43.266  20.111  18.816  0.00  0.00    +0.238 C 
ENDBRANCH   4   5
BRANCH  12  13
ATOM     13  O   UNL     1      45.352  22.314  20.606  0.00  0.00    -0.291 OA
ATOM     14  C   UNL     1      44.790  22.733  21.851  0.00  0.00    +0.237 C 
ENDBRANCH  12  13
ENDBRANCH  16  15
BRANCH  17  18
ATOM     18  O   UNL     1      50.325  19.260  17.577  0.00  0.00    -0.297 OA
ATOM     19  C   UNL     1      51.280  20.280  17.875  0.00  0.00    +0.241 C 
ENDBRANCH  17  18
BRANCH  21  22
ATOM     22  O   UNL     1      52.691  15.486  19.227  0.00  0.00    -0.299 OA
ATOM     23  C   UNL     1      53.931  16.189  19.312  0.00  0.00    +0.239 C 
ENDBRANCH  21  22
TORSDOF 5
ENDMDL
MODEL 9
REMARK VINA RESULT:      -4.8      5.262      6.990
REMARK  Name = ZINC13359242
REMARK  12 active torsions:
REMARK  status: ('A' for Active; 'I' for Inactive)
REMARK    1  A    between atoms: C1_1  and  C2_2
REMARK    2  A    between atoms: C4_4  and  O4_31
REMARK    3  A    between atoms: C7_7  and  C8_8
REMARK    4  A    between atoms: C9_9  and  O2_23
REMARK    5  A    between atoms: C11_11  and  O1_21
REMARK    6  A    between atoms: C15_15  and  C18_20
REMARK    7  A    between atoms: C16_18  and  C17_19
REMARK    8  A    between atoms: O1_21  and  C19_22
REMARK    9  A    between atoms: O2_23  and  C20_24
REMARK   10  A    between atoms: C24_28  and  O3_29
REMARK   11  A    between atoms: O3_29  and  C25_30
REMARK   12  A    between atoms: O4_31  and  C26_32
REMARK                            x       y       z     vdW  Elec       q    Type
REMARK                         _______ _______ _______ _____ _____    ______ ____
ROOT
ATOM     16  C   UNL     1      50.775  17.164  19.443  0.00  0.00    -0.099 A 
ATOM     17  C   UNL     1      50.400  17.145  20.796  0.00  0.00    +0.201 A 
ATOM     20  C   UNL     1      50.532  18.284  21.573  0.00  0.00    -0.170 A 
ATOM     21  C   UNL     1      51.036  19.452  21.022  0.00  0.00    +0.209 A 
ATOM     24  C   UNL     1      51.412  19.478  19.673  0.00  0.00    -0.187 A 
ATOM     25  C   UNL     1      51.953  20.698  19.053  0.00  0.00    +0.230 C 
ATOM     26  C   UNL     1      52.509  21.802  19.915  0.00  0.00    +0.138 C 
ATOM     27  N   UNL     1      51.949  20.820  17.765  0.00  0.00    -0.524 NA
ATOM     28  C   UNL     1      51.407  19.787  16.888  0.00  0.00    +0.151 C 
ATOM     29  C   UNL     1      52.044  19.918  15.504  0.00  0.00    +0.052 C 
ATOM     30  C   UNL     1      51.690  18.390  17.439  0.00  0.00    +0.077 C 
ATOM     31  C   UNL     1      51.279  18.329  18.887  0.00  0.00    +0.028 A 
ENDROOT
BRANCH  16  15
ATOM      1  C   UNL     1      52.997  15.360  19.175  0.00  0.00    +0.093 C 
ATOM      2  C   UNL     1      51.693  15.068  18.477  0.00  0.00    -0.007 A 
ATOM      3  C   UNL     1      51.571  13.921  17.703  0.00  0.00    -0.105 A 
ATOM      4  C   UNL     1      50.393  13.628  17.053  0.00  0.00    +0.174 A 
ATOM      7  C   UNL     1      49.291  14.499  17.170  0.00  0.00    -0.099 A 
ATOM      8  C   UNL     1      49.407  15.667  17.963  0.00  0.00    +0.043 A 
ATOM      9  C   UNL     1      48.309  16.531  18.084  0.00  0.00    -0.031 A 
ATOM     10  C   UNL     1      47.140  16.240  17.447  0.00  0.00    +0.066 A 
ATOM     11  C   UNL     1      47.013  15.093  16.671  0.00  0.00    -0.113 A 
ATOM     12  C   UNL     1      48.073  14.226  16.517  0.00  0.00    +0.169 A 
ATOM     15  C   UNL     1      50.632  15.945  18.614  0.00  0.00    -0.075 A 
BRANCH   4   5
ATOM      5  O   UNL     1      50.292  12.502  16.300  0.00  0.00    -0.290 OA
ATOM      6  C   UNL     1      51.364  12.227  15.397  0.00  0.00    +0.238 C 
ENDBRANCH   4   5
BRANCH  12  13
ATOM     13  O   UNL     1      47.940  13.109  15.757  0.00  0.00    -0.291 OA
ATOM     14  C   UNL     1      46.956  12.158  16.167  0.00  0.00    +0.237 C 
ENDBRANCH  12  13
ENDBRANCH  16  15
BRANCH  17  18
ATOM     18  O   UNL     1      49.906  16.006  21.345  0.00  0.00    -0.297 OA
ATOM     19  C   UNL     1      50.713  15.358  22.331  0.00  0.00    +0.241 C 
ENDBRANCH  17  18
BRANCH  21  22
ATOM     22  O   UNL     1      51.159  20.567  21.785  0.00  0.00    -0.299 OA
ATOM     23  C   UNL     1      50.001  20.991  22.505  0.00  0.00    +0.239 C 
ENDBRANCH  21  22
TORSDOF 5
ENDMDL
