MODEL 1
REMARK VINA RESULT:      -5.8      0.000      0.000
REMARK  Name = ZINC95485909
REMARK  22 active torsions:
REMARK  status: ('A' for Active; 'I' for Inactive)
REMARK    1  A    between atoms: C1_1  and  O1_2
REMARK    2  A    between atoms: O1_2  and  C2_3
REMARK    3  A    between atoms: C4_5  and  C8_10
REMARK    4  A    between atoms: C7_8  and  O2_9
REMARK    5  A    between atoms: C9_11  and  C10_12
REMARK    6  A    between atoms: C10_12  and  O4_14
REMARK    7  A    between atoms: O4_14  and  C11_15
REMARK    8  A    between atoms: C12_17  and  C17_30
REMARK    9  A    between atoms: C13_20  and  C16_28
REMARK   10  A    between atoms: C14_22  and  O7_27
REMARK   11  A    between atoms: C15_24  and  O6_26
REMARK   12  A    between atoms: C16_28  and  O8_29
REMARK   13  A    between atoms: C18_31  and  O18_65
REMARK   14  A    between atoms: C22_36  and  C32_58
REMARK   15  A    between atoms: C24_39  and  C26_42
REMARK   16  A    between atoms: C25_40  and  O11_41
REMARK   17  A    between atoms: C27_44  and  O16_57
REMARK   18  A    between atoms: C28_46  and  O15_56
REMARK   19  A    between atoms: C29_48  and  O14_55
REMARK   20  A    between atoms: C30_50  and  C31_53
REMARK   21  A    between atoms: C31_53  and  O13_54
REMARK   22  A    between atoms: C35_61  and  O17_64
REMARK                            x       y       z     vdW  Elec       q    Type
REMARK                         _______ _______ _______ _____ _____    ______ ____
ROOT
ATOM     12  C   UNL     1      48.130  16.858  20.344  0.00  0.00    -0.178 A 
ATOM     13  C   UNL     1      49.256  17.159  21.087  0.00  0.00    +0.254 A 
ATOM     16  C   UNL     1      50.407  16.374  20.941  0.00  0.00    -0.269 A 
ATOM     17  C   UNL     1      51.629  16.659  21.713  0.00  0.00    +0.426 A 
ATOM     18  C   UNL     1      52.744  15.814  21.502  0.00  0.00    -0.146 A 
ATOM     19  C   UNL     1      52.651  14.791  20.611  0.00  0.00    +0.209 A 
ATOM     28  O   UNL     1      51.532  14.542  19.912  0.00  0.00    -0.211 OA
ATOM     29  O   UNL     1      51.677  17.587  22.505  0.00  0.00    -0.450 OA
ATOM     30  C   UNL     1      50.417  15.292  20.046  0.00  0.00    +0.215 A 
ATOM     31  C   UNL     1      49.278  15.006  19.309  0.00  0.00    -0.141 A 
ATOM     47  C   UNL     1      48.139  15.783  19.463  0.00  0.00    +0.239 A 
ENDROOT
BRANCH  12  11
ATOM     10  C   UNL     1      46.438  18.199  19.120  0.00  0.00    +0.177 C 
ATOM     11  C   UNL     1      46.885  17.695  20.494  0.00  0.00    +0.244 C 
ATOM     50  O   UNL     1      45.845  16.901  21.070  0.00  0.00    -0.326 OA
ATOM     51  C   UNL     1      44.621  17.608  21.282  0.00  0.00    +0.137 C 
ATOM     55  C   UNL     1      44.084  18.110  19.938  0.00  0.00    +0.132 C 
ATOM     58  C   UNL     1      45.140  18.996  19.272  0.00  0.00    +0.174 C 
BRANCH  55  56
ATOM     56  O   UNL     1      42.890  18.864  20.152  0.00  0.00    -0.556 OA
ATOM     57  H   UNL     1      42.364  19.005  19.354  0.00  0.00    +0.385 HD
ENDBRANCH  55  56
BRANCH  58  59
ATOM     59  O   UNL     1      44.678  19.407  17.984  0.00  0.00    -0.540 OA
ATOM     60  H   UNL     1      44.127  18.751  17.535  0.00  0.00    +0.386 HD
ENDBRANCH  58  59
BRANCH  10   9
ATOM      9  O   UNL     1      47.454  19.039  18.568  0.00  0.00    -0.327 OA
BRANCH   9   8
ATOM      8  C   UNL     1      47.488  20.319  18.994  0.00  0.00    +0.491 C 
ATOM     61  O   UNL     1      46.890  21.181  18.381  0.00  0.00    -0.470 OA
BRANCH   8   7
ATOM      6  C   UNL     1      49.550  20.896  20.076  0.00  0.00    +0.146 C 
ATOM      7  C   UNL     1      48.222  20.658  20.159  0.00  0.00    -0.043 C 
BRANCH   6   5
ATOM      3  C   UNL     1      51.488  18.958  17.515  0.00  0.00    +0.097 A 
ATOM      4  C   UNL     1      50.803  19.271  18.673  0.00  0.00    -0.038 A 
ATOM      5  C   UNL     1      50.281  20.558  18.847  0.00  0.00    -0.040 A 
ATOM     62  C   UNL     1      50.455  21.521  17.846  0.00  0.00    +0.039 A 
ATOM     63  C   UNL     1      51.139  21.200  16.694  0.00  0.00    +0.023 A 
ATOM     64  C   UNL     1      51.663  19.925  16.525  0.00  0.00    +0.088 A 
BRANCH   3   2
ATOM      1  C   UNL     1      52.961  17.263  18.301  0.00  0.00    +0.236 C 
ATOM      2  O   UNL     1      51.998  17.710  17.343  0.00  0.00    -0.309 OA
ENDBRANCH   3   2
BRANCH  64  65
ATOM     65  O   UNL     1      52.342  19.616  15.391  0.00  0.00    -0.486 OA
ATOM     66  H   UNL     1      51.787  19.575  14.599  0.00  0.00    +0.386 HD
ENDBRANCH  64  65
ENDBRANCH   6   5
ENDBRANCH   8   7
ENDBRANCH   9   8
ENDBRANCH  10   9
BRANCH  51  52
ATOM     52  C   UNL     1      43.595  16.673  21.924  0.00  0.00    +0.207 C 
BRANCH  52  53
ATOM     53  O   UNL     1      42.499  17.441  22.426  0.00  0.00    -0.561 OA
ATOM     54  H   UNL     1      42.676  18.389  22.484  0.00  0.00    +0.384 HD
ENDBRANCH  52  53
ENDBRANCH  51  52
ENDBRANCH  12  11
BRANCH  19  20
ATOM     20  C   UNL     1      53.825  13.921  20.403  0.00  0.00    -0.082 A 
ATOM     21  C   UNL     1      55.019  14.461  19.919  0.00  0.00    +0.080 A 
ATOM     22  C   UNL     1      56.113  13.646  19.727  0.00  0.00    -0.006 A 
ATOM     23  C   UNL     1      56.029  12.288  20.015  0.00  0.00    +0.135 A 
ATOM     26  C   UNL     1      54.843  11.748  20.498  0.00  0.00    -0.011 A 
ATOM     27  C   UNL     1      53.746  12.557  20.697  0.00  0.00    +0.079 A 
BRANCH  23  24
ATOM     24  O   UNL     1      57.110  11.488  19.826  0.00  0.00    -0.497 OA
ATOM     25  H   UNL     1      57.484  11.132  20.643  0.00  0.00    +0.398 HD
ENDBRANCH  23  24
ENDBRANCH  19  20
BRANCH  31  32
ATOM     32  C   UNL     1      49.275  13.848  18.345  0.00  0.00    +0.239 C 
ATOM     33  C   UNL     1      49.614  14.352  16.940  0.00  0.00    +0.166 C 
ATOM     36  C   UNL     1      49.549  13.180  15.956  0.00  0.00    +0.118 C 
ATOM     39  C   UNL     1      48.157  12.544  16.025  0.00  0.00    +0.130 C 
ATOM     42  C   UNL     1      47.875  12.110  17.467  0.00  0.00    +0.175 C 
ATOM     46  O   UNL     1      47.982  13.241  18.334  0.00  0.00    -0.323 OA
BRANCH  33  34
ATOM     34  O   UNL     1      50.929  14.909  16.936  0.00  0.00    -0.546 OA
ATOM     35  H   UNL     1      50.961  15.844  17.180  0.00  0.00    +0.391 HD
ENDBRANCH  33  34
BRANCH  36  37
ATOM     37  O   UNL     1      49.793  13.654  14.630  0.00  0.00    -0.557 OA
ATOM     38  H   UNL     1      49.111  13.407  13.992  0.00  0.00    +0.384 HD
ENDBRANCH  36  37
BRANCH  39  40
ATOM     40  O   UNL     1      48.108  11.406  15.164  0.00  0.00    -0.552 OA
ATOM     41  H   UNL     1      48.078  10.560  15.632  0.00  0.00    +0.383 HD
ENDBRANCH  39  40
BRANCH  42  43
ATOM     43  C   UNL     1      46.463  11.529  17.556  0.00  0.00    +0.220 C 
BRANCH  43  44
ATOM     44  O   UNL     1      45.655  12.076  16.512  0.00  0.00    -0.564 OA
ATOM     45  H   UNL     1      45.704  13.039  16.441  0.00  0.00    +0.382 HD
ENDBRANCH  43  44
ENDBRANCH  42  43
ENDBRANCH  31  32
BRANCH  13  14
ATOM     14  O   UNL     1      49.246  18.205  21.951  0.00  0.00    -0.455 OA
ATOM     15  H   UNL     1      48.928  17.981  22.836  0.00  0.00    +0.397 HD
ENDBRANCH  13  14
BRANCH  47  48
ATOM     48  O   UNL     1      47.026  15.494  18.742  0.00  0.00    -0.462 OA
ATOM     49  H   UNL     1      47.110  15.680  17.797  0.00  0.00    +0.393 HD
ENDBRANCH  47  48
TORSDOF 21
ENDMDL
MODEL 2
REMARK VINA RESULT:      -5.1      2.139      4.394
REMARK  Name = ZINC95485909
REMARK  22 active torsions:
REMARK  status: ('A' for Active; 'I' for Inactive)
REMARK    1  A    between atoms: C1_1  and  O1_2
REMARK    2  A    between atoms: O1_2  and  C2_3
REMARK    3  A    between atoms: C4_5  and  C8_10
REMARK    4  A    between atoms: C7_8  and  O2_9
REMARK    5  A    between atoms: C9_11  and  C10_12
REMARK    6  A    between atoms: C10_12  and  O4_14
REMARK    7  A    between atoms: O4_14  and  C11_15
REMARK    8  A    between atoms: C12_17  and  C17_30
REMARK    9  A    between atoms: C13_20  and  C16_28
REMARK   10  A    between atoms: C14_22  and  O7_27
REMARK   11  A    between atoms: C15_24  and  O6_26
REMARK   12  A    between atoms: C16_28  and  O8_29
REMARK   13  A    between atoms: C18_31  and  O18_65
REMARK   14  A    between atoms: C22_36  and  C32_58
REMARK   15  A    between atoms: C24_39  and  C26_42
REMARK   16  A    between atoms: C25_40  and  O11_41
REMARK   17  A    between atoms: C27_44  and  O16_57
REMARK   18  A    between atoms: C28_46  and  O15_56
REMARK   19  A    between atoms: C29_48  and  O14_55
REMARK   20  A    between atoms: C30_50  and  C31_53
REMARK   21  A    between atoms: C31_53  and  O13_54
REMARK   22  A    between atoms: C35_61  and  O17_64
REMARK                            x       y       z     vdW  Elec       q    Type
REMARK                         _______ _______ _______ _____ _____    ______ ____
ROOT
ATOM     12  C   UNL     1      47.094  17.182  20.598  0.00  0.00    -0.178 A 
ATOM     13  C   UNL     1      46.796  17.033  19.256  0.00  0.00    +0.254 A 
ATOM     16  C   UNL     1      47.485  16.078  18.499  0.00  0.00    -0.269 A 
ATOM     17  C   UNL     1      47.199  15.887  17.066  0.00  0.00    +0.426 A 
ATOM     18  C   UNL     1      47.945  14.898  16.380  0.00  0.00    -0.146 A 
ATOM     19  C   UNL     1      48.878  14.174  17.054  0.00  0.00    +0.209 A 
ATOM     28  O   UNL     1      49.129  14.357  18.360  0.00  0.00    -0.211 OA
ATOM     29  O   UNL     1      46.354  16.555  16.493  0.00  0.00    -0.450 OA
ATOM     30  C   UNL     1      48.471  15.276  19.099  0.00  0.00    +0.215 A 
ATOM     31  C   UNL     1      48.755  15.439  20.445  0.00  0.00    -0.141 A 
ATOM     47  C   UNL     1      48.073  16.391  21.188  0.00  0.00    +0.239 A 
ENDROOT
BRANCH  12  11
ATOM     10  C   UNL     1      46.944  19.596  21.149  0.00  0.00    +0.177 C 
ATOM     11  C   UNL     1      46.359  18.208  21.422  0.00  0.00    +0.244 C 
ATOM     50  O   UNL     1      44.974  18.198  21.070  0.00  0.00    -0.326 OA
ATOM     51  C   UNL     1      44.177  19.121  21.814  0.00  0.00    +0.137 C 
ATOM     55  C   UNL     1      44.674  20.546  21.558  0.00  0.00    +0.132 C 
ATOM     58  C   UNL     1      46.153  20.641  21.943  0.00  0.00    +0.174 C 
BRANCH  55  56
ATOM     56  O   UNL     1      43.915  21.466  22.344  0.00  0.00    -0.556 OA
ATOM     57  H   UNL     1      44.410  21.868  23.070  0.00  0.00    +0.385 HD
ENDBRANCH  55  56
BRANCH  58  59
ATOM     59  O   UNL     1      46.646  21.947  21.636  0.00  0.00    -0.540 OA
ATOM     60  H   UNL     1      46.098  22.665  21.980  0.00  0.00    +0.386 HD
ENDBRANCH  58  59
BRANCH  10   9
ATOM      9  O   UNL     1      48.314  19.624  21.555  0.00  0.00    -0.327 OA
BRANCH   9   8
ATOM      8  C   UNL     1      49.101  20.563  20.988  0.00  0.00    +0.491 C 
ATOM     61  O   UNL     1      48.731  21.141  19.984  0.00  0.00    -0.470 OA
BRANCH   8   7
ATOM      6  C   UNL     1      51.469  20.893  20.790  0.00  0.00    +0.146 C 
ATOM      7  C   UNL     1      50.359  20.874  21.562  0.00  0.00    -0.043 C 
BRANCH   6   5
ATOM      3  C   UNL     1      51.192  18.469  17.941  0.00  0.00    +0.097 A 
ATOM      4  C   UNL     1      51.235  18.975  19.225  0.00  0.00    -0.038 A 
ATOM      5  C   UNL     1      51.423  20.348  19.426  0.00  0.00    -0.040 A 
ATOM     62  C   UNL     1      51.567  21.200  18.324  0.00  0.00    +0.039 A 
ATOM     63  C   UNL     1      51.523  20.686  17.047  0.00  0.00    +0.023 A 
ATOM     64  C   UNL     1      51.342  19.323  16.848  0.00  0.00    +0.088 A 
BRANCH   3   2
ATOM      1  C   UNL     1      52.178  16.314  17.744  0.00  0.00    +0.236 C 
ATOM      2  O   UNL     1      51.009  17.137  17.741  0.00  0.00    -0.309 OA
ENDBRANCH   3   2
BRANCH  64  65
ATOM     65  O   UNL     1      51.305  18.822  15.587  0.00  0.00    -0.486 OA
ATOM     66  H   UNL     1      52.172  18.757  15.164  0.00  0.00    +0.386 HD
ENDBRANCH  64  65
ENDBRANCH   6   5
ENDBRANCH   8   7
ENDBRANCH   9   8
ENDBRANCH  10   9
BRANCH  51  52
ATOM     52  C   UNL     1      42.716  19.005  21.375  0.00  0.00    +0.207 C 
BRANCH  52  53
ATOM     53  O   UNL     1      41.862  19.195  22.505  0.00  0.00    -0.561 OA
ATOM     54  H   UNL     1      41.479  18.379  22.852  0.00  0.00    +0.384 HD
ENDBRANCH  52  53
ENDBRANCH  51  52
ENDBRANCH  12  11
BRANCH  19  20
ATOM     20  C   UNL     1      49.645  13.148  16.321  0.00  0.00    -0.082 A 
ATOM     21  C   UNL     1      50.819  13.498  15.650  0.00  0.00    +0.080 A 
ATOM     22  C   UNL     1      51.532  12.538  14.967  0.00  0.00    -0.006 A 
ATOM     23  C   UNL     1      51.085  11.221  14.946  0.00  0.00    +0.135 A 
ATOM     26  C   UNL     1      49.918  10.869  15.613  0.00  0.00    -0.011 A 
ATOM     27  C   UNL     1      49.202  11.823  16.303  0.00  0.00    +0.079 A 
BRANCH  23  24
ATOM     24  O   UNL     1      51.791  10.277  14.273  0.00  0.00    -0.497 OA
ATOM     25  H   UNL     1      52.279  10.618  13.511  0.00  0.00    +0.398 HD
ENDBRANCH  23  24
ENDBRANCH  19  20
BRANCH  31  32
ATOM     32  C   UNL     1      49.809  14.585  21.102  0.00  0.00    +0.239 C 
ATOM     33  C   UNL     1      51.189  15.204  20.864  0.00  0.00    +0.166 C 
ATOM     36  C   UNL     1      52.259  14.300  21.483  0.00  0.00    +0.118 C 
ATOM     39  C   UNL     1      52.140  12.897  20.878  0.00  0.00    +0.130 C 
ATOM     42  C   UNL     1      50.722  12.367  21.115  0.00  0.00    +0.175 C 
ATOM     46  O   UNL     1      49.775  13.271  20.543  0.00  0.00    -0.323 OA
BRANCH  33  34
ATOM     34  O   UNL     1      51.244  16.496  21.472  0.00  0.00    -0.546 OA
ATOM     35  H   UNL     1      51.652  17.175  20.917  0.00  0.00    +0.391 HD
ENDBRANCH  33  34
BRANCH  36  37
ATOM     37  O   UNL     1      53.555  14.833  21.203  0.00  0.00    -0.557 OA
ATOM     38  H   UNL     1      54.213  14.164  20.966  0.00  0.00    +0.384 HD
ENDBRANCH  36  37
BRANCH  39  40
ATOM     40  O   UNL     1      53.087  12.027  21.499  0.00  0.00    -0.552 OA
ATOM     41  H   UNL     1      54.002  12.187  21.232  0.00  0.00    +0.383 HD
ENDBRANCH  39  40
BRANCH  42  43
ATOM     43  C   UNL     1      50.576  10.992  20.462  0.00  0.00    +0.220 C 
BRANCH  43  44
ATOM     44  O   UNL     1      51.608  10.815  19.488  0.00  0.00    -0.564 OA
ATOM     45  H   UNL     1      51.546  11.420  18.736  0.00  0.00    +0.382 HD
ENDBRANCH  43  44
ENDBRANCH  42  43
ENDBRANCH  31  32
BRANCH  13  14
ATOM     14  O   UNL     1      45.844  17.807  18.677  0.00  0.00    -0.455 OA
ATOM     15  H   UNL     1      45.621  18.601  19.182  0.00  0.00    +0.397 HD
ENDBRANCH  13  14
BRANCH  47  48
ATOM     48  O   UNL     1      48.361  16.549  22.505  0.00  0.00    -0.462 OA
ATOM     49  H   UNL     1      48.264  17.457  22.823  0.00  0.00    +0.393 HD
ENDBRANCH  47  48
TORSDOF 21
ENDMDL
MODEL 3
REMARK VINA RESULT:      -5.1      2.221      7.368
REMARK  Name = ZINC95485909
REMARK  22 active torsions:
REMARK  status: ('A' for Active; 'I' for Inactive)
REMARK    1  A    between atoms: C1_1  and  O1_2
REMARK    2  A    between atoms: O1_2  and  C2_3
REMARK    3  A    between atoms: C4_5  and  C8_10
REMARK    4  A    between atoms: C7_8  and  O2_9
REMARK    5  A    between atoms: C9_11  and  C10_12
REMARK    6  A    between atoms: C10_12  and  O4_14
REMARK    7  A    between atoms: O4_14  and  C11_15
REMARK    8  A    between atoms: C12_17  and  C17_30
REMARK    9  A    between atoms: C13_20  and  C16_28
REMARK   10  A    between atoms: C14_22  and  O7_27
REMARK   11  A    between atoms: C15_24  and  O6_26
REMARK   12  A    between atoms: C16_28  and  O8_29
REMARK   13  A    between atoms: C18_31  and  O18_65
REMARK   14  A    between atoms: C22_36  and  C32_58
REMARK   15  A    between atoms: C24_39  and  C26_42
REMARK   16  A    between atoms: C25_40  and  O11_41
REMARK   17  A    between atoms: C27_44  and  O16_57
REMARK   18  A    between atoms: C28_46  and  O15_56
REMARK   19  A    between atoms: C29_48  and  O14_55
REMARK   20  A    between atoms: C30_50  and  C31_53
REMARK   21  A    between atoms: C31_53  and  O13_54
REMARK   22  A    between atoms: C35_61  and  O17_64
REMARK                            x       y       z     vdW  Elec       q    Type
REMARK                         _______ _______ _______ _____ _____    ______ ____
ROOT
ATOM     12  C   UNL     1      49.247  14.408  17.727  0.00  0.00    -0.178 A 
ATOM     13  C   UNL     1      48.596  15.623  17.619  0.00  0.00    +0.254 A 
ATOM     16  C   UNL     1      49.100  16.737  18.302  0.00  0.00    -0.269 A 
ATOM     17  C   UNL     1      48.438  18.050  18.215  0.00  0.00    +0.426 A 
ATOM     18  C   UNL     1      49.017  19.120  18.939  0.00  0.00    -0.146 A 
ATOM     19  C   UNL     1      50.142  18.904  19.671  0.00  0.00    +0.209 A 
ATOM     28  O   UNL     1      50.738  17.702  19.742  0.00  0.00    -0.211 OA
ATOM     29  O   UNL     1      47.429  18.209  17.547  0.00  0.00    -0.450 OA
ATOM     30  C   UNL     1      50.259  16.621  19.088  0.00  0.00    +0.215 A 
ATOM     31  C   UNL     1      50.898  15.395  19.183  0.00  0.00    -0.141 A 
ATOM     47  C   UNL     1      50.389  14.294  18.509  0.00  0.00    +0.239 A 
ENDROOT
BRANCH  12  11
ATOM     10  C   UNL     1      47.209  13.072  17.258  0.00  0.00    +0.177 C 
ATOM     11  C   UNL     1      48.712  13.202  16.998  0.00  0.00    +0.244 C 
ATOM     50  O   UNL     1      48.940  13.354  15.595  0.00  0.00    -0.326 OA
ATOM     51  C   UNL     1      48.492  12.248  14.809  0.00  0.00    +0.137 C 
ATOM     55  C   UNL     1      46.980  12.079  14.982  0.00  0.00    +0.132 C 
ATOM     58  C   UNL     1      46.661  11.881  16.466  0.00  0.00    +0.174 C 
BRANCH  55  56
ATOM     56  O   UNL     1      46.538  10.941  14.240  0.00  0.00    -0.556 OA
ATOM     57  H   UNL     1      46.871  10.907  13.334  0.00  0.00    +0.385 HD
ENDBRANCH  55  56
BRANCH  58  59
ATOM     59  O   UNL     1      45.246  11.798  16.647  0.00  0.00    -0.540 OA
ATOM     60  H   UNL     1      44.935  10.925  16.925  0.00  0.00    +0.386 HD
ENDBRANCH  58  59
BRANCH  10   9
ATOM      9  O   UNL     1      46.984  12.862  18.654  0.00  0.00    -0.327 OA
BRANCH   9   8
ATOM      8  C   UNL     1      45.964  13.542  19.218  0.00  0.00    +0.491 C 
ATOM     61  O   UNL     1      45.638  14.627  18.776  0.00  0.00    -0.470 OA
BRANCH   8   7
ATOM      6  C   UNL     1      45.456  13.510  21.563  0.00  0.00    +0.146 C 
ATOM      7  C   UNL     1      45.273  12.992  20.327  0.00  0.00    -0.043 C 
BRANCH   6   5
ATOM      3  C   UNL     1      47.305  16.704  22.232  0.00  0.00    +0.097 A 
ATOM      4  C   UNL     1      46.271  15.817  22.003  0.00  0.00    -0.038 A 
ATOM      5  C   UNL     1      46.551  14.459  21.805  0.00  0.00    -0.040 A 
ATOM     62  C   UNL     1      47.876  14.009  21.841  0.00  0.00    +0.039 A 
ATOM     63  C   UNL     1      48.900  14.901  22.070  0.00  0.00    +0.023 A 
ATOM     64  C   UNL     1      48.623  16.249  22.260  0.00  0.00    +0.088 A 
BRANCH   3   2
ATOM      1  C   UNL     1      46.201  18.664  21.459  0.00  0.00    +0.236 C 
ATOM      2  O   UNL     1      47.037  18.023  22.425  0.00  0.00    -0.309 OA
ENDBRANCH   3   2
BRANCH  64  65
ATOM     65  O   UNL     1      49.636  17.125  22.480  0.00  0.00    -0.486 OA
ATOM     66  H   UNL     1      49.514  17.983  22.052  0.00  0.00    +0.386 HD
ENDBRANCH  64  65
ENDBRANCH   6   5
ENDBRANCH   8   7
ENDBRANCH   9   8
ENDBRANCH  10   9
BRANCH  51  52
ATOM     52  C   UNL     1      48.810  12.507  13.335  0.00  0.00    +0.207 C 
BRANCH  52  53
ATOM     53  O   UNL     1      47.644  13.005  12.676  0.00  0.00    -0.561 OA
ATOM     54  H   UNL     1      46.824  12.570  12.944  0.00  0.00    +0.384 HD
ENDBRANCH  52  53
ENDBRANCH  51  52
ENDBRANCH  12  11
BRANCH  19  20
ATOM     20  C   UNL     1      50.732  20.031  20.417  0.00  0.00    -0.082 A 
ATOM     21  C   UNL     1      51.816  20.733  19.885  0.00  0.00    +0.080 A 
ATOM     22  C   UNL     1      52.363  21.786  20.584  0.00  0.00    -0.006 A 
ATOM     23  C   UNL     1      51.838  22.150  21.819  0.00  0.00    +0.135 A 
ATOM     26  C   UNL     1      50.760  21.454  22.352  0.00  0.00    -0.011 A 
ATOM     27  C   UNL     1      50.203  20.404  21.656  0.00  0.00    +0.079 A 
BRANCH  23  24
ATOM     24  O   UNL     1      52.380  23.189  22.505  0.00  0.00    -0.497 OA
ATOM     25  H   UNL     1      51.926  23.393  23.334  0.00  0.00    +0.398 HD
ENDBRANCH  23  24
ENDBRANCH  19  20
BRANCH  31  32
ATOM     32  C   UNL     1      52.141  15.256  20.022  0.00  0.00    +0.239 C 
ATOM     33  C   UNL     1      53.376  15.505  19.152  0.00  0.00    +0.166 C 
ATOM     36  C   UNL     1      54.637  15.303  19.998  0.00  0.00    +0.118 C 
ATOM     39  C   UNL     1      54.620  13.891  20.592  0.00  0.00    +0.130 C 
ATOM     42  C   UNL     1      53.336  13.705  21.407  0.00  0.00    +0.175 C 
ATOM     46  O   UNL     1      52.203  13.938  20.570  0.00  0.00    -0.323 OA
BRANCH  33  34
ATOM     34  O   UNL     1      53.345  16.841  18.650  0.00  0.00    -0.546 OA
ATOM     35  H   UNL     1      54.128  17.364  18.872  0.00  0.00    +0.391 HD
ENDBRANCH  33  34
BRANCH  36  37
ATOM     37  O   UNL     1      55.795  15.462  19.176  0.00  0.00    -0.557 OA
ATOM     38  H   UNL     1      55.740  15.004  18.326  0.00  0.00    +0.384 HD
ENDBRANCH  36  37
BRANCH  39  40
ATOM     40  O   UNL     1      55.755  13.716  21.441  0.00  0.00    -0.552 OA
ATOM     41  H   UNL     1      56.239  12.893  21.286  0.00  0.00    +0.383 HD
ENDBRANCH  39  40
BRANCH  42  43
ATOM     43  C   UNL     1      53.283  12.278  21.955  0.00  0.00    +0.220 C 
BRANCH  43  44
ATOM     44  O   UNL     1      52.629  11.429  21.009  0.00  0.00    -0.564 OA
ATOM     45  H   UNL     1      52.465  10.533  21.334  0.00  0.00    +0.382 HD
ENDBRANCH  43  44
ENDBRANCH  42  43
ENDBRANCH  31  32
BRANCH  13  14
ATOM     14  O   UNL     1      47.478  15.735  16.860  0.00  0.00    -0.455 OA
ATOM     15  H   UNL     1      47.046  16.598  16.918  0.00  0.00    +0.397 HD
ENDBRANCH  13  14
BRANCH  47  48
ATOM     48  O   UNL     1      51.017  13.095  18.612  0.00  0.00    -0.462 OA
ATOM     49  H   UNL     1      50.417  12.343  18.711  0.00  0.00    +0.393 HD
ENDBRANCH  47  48
TORSDOF 21
ENDMDL
MODEL 4
REMARK VINA RESULT:      -4.9      1.950      2.966
REMARK  Name = ZINC95485909
REMARK  22 active torsions:
REMARK  status: ('A' for Active; 'I' for Inactive)
REMARK    1  A    between atoms: C1_1  and  O1_2
REMARK    2  A    between atoms: O1_2  and  C2_3
REMARK    3  A    between atoms: C4_5  and  C8_10
REMARK    4  A    between atoms: C7_8  and  O2_9
REMARK    5  A    between atoms: C9_11  and  C10_12
REMARK    6  A    between atoms: C10_12  and  O4_14
REMARK    7  A    between atoms: O4_14  and  C11_15
REMARK    8  A    between atoms: C12_17  and  C17_30
REMARK    9  A    between atoms: C13_20  and  C16_28
REMARK   10  A    between atoms: C14_22  and  O7_27
REMARK   11  A    between atoms: C15_24  and  O6_26
REMARK   12  A    between atoms: C16_28  and  O8_29
REMARK   13  A    between atoms: C18_31  and  O18_65
REMARK   14  A    between atoms: C22_36  and  C32_58
REMARK   15  A    between atoms: C24_39  and  C26_42
REMARK   16  A    between atoms: C25_40  and  O11_41
REMARK   17  A    between atoms: C27_44  and  O16_57
REMARK   18  A    between atoms: C28_46  and  O15_56
REMARK   19  A    between atoms: C29_48  and  O14_55
REMARK   20  A    between atoms: C30_50  and  C31_53
REMARK   21  A    between atoms: C31_53  and  O13_54
REMARK   22  A    between atoms: C35_61  and  O17_64
REMARK                            x       y       z     vdW  Elec       q    Type
REMARK                         _______ _______ _______ _____ _____    ______ ____
ROOT
ATOM     12  C   UNL     1      47.267  16.748  20.939  0.00  0.00    -0.178 A 
ATOM     13  C   UNL     1      48.551  16.486  21.380  0.00  0.00    +0.254 A 
ATOM     16  C   UNL     1      49.362  15.602  20.657  0.00  0.00    -0.269 A 
ATOM     17  C   UNL     1      50.735  15.295  21.092  0.00  0.00    +0.426 A 
ATOM     18  C   UNL     1      51.481  14.390  20.300  0.00  0.00    -0.146 A 
ATOM     19  C   UNL     1      50.917  13.849  19.187  0.00  0.00    +0.209 A 
ATOM     28  O   UNL     1      49.663  14.137  18.800  0.00  0.00    -0.211 OA
ATOM     29  O   UNL     1      51.210  15.800  22.096  0.00  0.00    -0.450 OA
ATOM     30  C   UNL     1      48.874  14.988  19.491  0.00  0.00    +0.215 A 
ATOM     31  C   UNL     1      47.584  15.263  19.064  0.00  0.00    -0.141 A 
ATOM     47  C   UNL     1      46.785  16.135  19.789  0.00  0.00    +0.239 A 
ENDROOT
BRANCH  12  11
ATOM     10  C   UNL     1      46.712  19.137  21.311  0.00  0.00    +0.177 C 
ATOM     11  C   UNL     1      46.386  17.696  21.710  0.00  0.00    +0.244 C 
ATOM     50  O   UNL     1      45.015  17.420  21.414  0.00  0.00    -0.326 OA
ATOM     51  C   UNL     1      44.088  18.250  22.117  0.00  0.00    +0.137 C 
ATOM     55  C   UNL     1      44.323  19.714  21.734  0.00  0.00    +0.132 C 
ATOM     58  C   UNL     1      45.772  20.092  22.052  0.00  0.00    +0.174 C 
BRANCH  55  56
ATOM     56  O   UNL     1      43.434  20.550  22.476  0.00  0.00    -0.556 OA
ATOM     57  H   UNL     1      43.877  21.139  23.102  0.00  0.00    +0.385 HD
ENDBRANCH  55  56
BRANCH  58  59
ATOM     59  O   UNL     1      46.022  21.434  21.629  0.00  0.00    -0.540 OA
ATOM     60  H   UNL     1      45.237  21.999  21.629  0.00  0.00    +0.386 HD
ENDBRANCH  58  59
BRANCH  10   9
ATOM      9  O   UNL     1      48.066  19.434  21.659  0.00  0.00    -0.327 OA
BRANCH   9   8
ATOM      8  C   UNL     1      48.657  20.454  21.004  0.00  0.00    +0.491 C 
ATOM     61  O   UNL     1      48.314  20.731  19.871  0.00  0.00    -0.470 OA
BRANCH   8   7
ATOM      6  C   UNL     1      50.921  21.242  21.102  0.00  0.00    +0.146 C 
ATOM      7  C   UNL     1      49.680  21.205  21.637  0.00  0.00    -0.043 C 
BRANCH   6   5
ATOM      3  C   UNL     1      52.023  19.928  17.766  0.00  0.00    +0.097 A 
ATOM      4  C   UNL     1      51.682  20.807  18.776  0.00  0.00    -0.038 A 
ATOM      5  C   UNL     1      51.284  20.313  20.023  0.00  0.00    -0.040 A 
ATOM     62  C   UNL     1      51.232  18.931  20.241  0.00  0.00    +0.039 A 
ATOM     63  C   UNL     1      51.574  18.062  19.228  0.00  0.00    +0.023 A 
ATOM     64  C   UNL     1      51.964  18.552  17.988  0.00  0.00    +0.088 A 
BRANCH   3   2
ATOM      1  C   UNL     1      51.557  21.367  15.930  0.00  0.00    +0.236 C 
ATOM      2  O   UNL     1      52.411  20.404  16.553  0.00  0.00    -0.309 OA
ENDBRANCH   3   2
BRANCH  64  65
ATOM     65  O   UNL     1      52.293  17.691  16.992  0.00  0.00    -0.486 OA
ATOM     66  H   UNL     1      51.550  17.440  16.427  0.00  0.00    +0.386 HD
ENDBRANCH  64  65
ENDBRANCH   6   5
ENDBRANCH   8   7
ENDBRANCH   9   8
ENDBRANCH  10   9
BRANCH  51  52
ATOM     52  C   UNL     1      42.660  17.849  21.745  0.00  0.00    +0.207 C 
BRANCH  52  53
ATOM     53  O   UNL     1      42.203  18.662  20.662  0.00  0.00    -0.561 OA
ATOM     54  H   UNL     1      41.477  19.256  20.894  0.00  0.00    +0.384 HD
ENDBRANCH  52  53
ENDBRANCH  51  52
ENDBRANCH  12  11
BRANCH  19  20
ATOM     20  C   UNL     1      51.711  12.908  18.374  0.00  0.00    -0.082 A 
ATOM     21  C   UNL     1      51.354  12.656  17.047  0.00  0.00    +0.080 A 
ATOM     22  C   UNL     1      52.098  11.778  16.291  0.00  0.00    -0.006 A 
ATOM     23  C   UNL     1      53.202  11.142  16.847  0.00  0.00    +0.135 A 
ATOM     26  C   UNL     1      53.560  11.390  18.167  0.00  0.00    -0.011 A 
ATOM     27  C   UNL     1      52.824  12.271  18.928  0.00  0.00    +0.079 A 
BRANCH  23  24
ATOM     24  O   UNL     1      53.933  10.277  16.098  0.00  0.00    -0.497 OA
ATOM     25  H   UNL     1      53.464   9.465  15.862  0.00  0.00    +0.398 HD
ENDBRANCH  23  24
ENDBRANCH  19  20
BRANCH  31  32
ATOM     32  C   UNL     1      47.049  14.611  17.816  0.00  0.00    +0.239 C 
ATOM     33  C   UNL     1      46.290  13.336  18.190  0.00  0.00    +0.166 C 
ATOM     36  C   UNL     1      45.800  12.648  16.912  0.00  0.00    +0.118 C 
ATOM     39  C   UNL     1      47.002  12.364  16.005  0.00  0.00    +0.130 C 
ATOM     42  C   UNL     1      47.734  13.678  15.715  0.00  0.00    +0.175 C 
ATOM     46  O   UNL     1      48.134  14.281  16.946  0.00  0.00    -0.323 OA
BRANCH  33  34
ATOM     34  O   UNL     1      45.171  13.670  19.012  0.00  0.00    -0.546 OA
ATOM     35  H   UNL     1      45.270  13.407  19.938  0.00  0.00    +0.391 HD
ENDBRANCH  33  34
BRANCH  36  37
ATOM     37  O   UNL     1      45.153  11.419  17.248  0.00  0.00    -0.557 OA
ATOM     38  H   UNL     1      44.928  10.871  16.484  0.00  0.00    +0.384 HD
ENDBRANCH  36  37
BRANCH  39  40
ATOM     40  O   UNL     1      46.549  11.787  14.779  0.00  0.00    -0.552 OA
ATOM     41  H   UNL     1      45.589  11.805  14.667  0.00  0.00    +0.383 HD
ENDBRANCH  39  40
BRANCH  42  43
ATOM     43  C   UNL     1      48.969  13.395  14.859  0.00  0.00    +0.220 C 
BRANCH  43  44
ATOM     44  O   UNL     1      48.570  13.176  13.504  0.00  0.00    -0.564 OA
ATOM     45  H   UNL     1      47.802  12.595  13.410  0.00  0.00    +0.382 HD
ENDBRANCH  43  44
ENDBRANCH  42  43
ENDBRANCH  31  32
BRANCH  13  14
ATOM     14  O   UNL     1      49.022  17.080  22.505  0.00  0.00    -0.455 OA
ATOM     15  H   UNL     1      49.986  17.132  22.550  0.00  0.00    +0.397 HD
ENDBRANCH  13  14
BRANCH  47  48
ATOM     48  O   UNL     1      45.521  16.395  19.367  0.00  0.00    -0.462 OA
ATOM     49  H   UNL     1      44.839  15.899  19.840  0.00  0.00    +0.393 HD
ENDBRANCH  47  48
TORSDOF 21
ENDMDL
MODEL 5
REMARK VINA RESULT:      -4.3      2.090      5.075
REMARK  Name = ZINC95485909
REMARK  22 active torsions:
REMARK  status: ('A' for Active; 'I' for Inactive)
REMARK    1  A    between atoms: C1_1  and  O1_2
REMARK    2  A    between atoms: O1_2  and  C2_3
REMARK    3  A    between atoms: C4_5  and  C8_10
REMARK    4  A    between atoms: C7_8  and  O2_9
REMARK    5  A    between atoms: C9_11  and  C10_12
REMARK    6  A    between atoms: C10_12  and  O4_14
REMARK    7  A    between atoms: O4_14  and  C11_15
REMARK    8  A    between atoms: C12_17  and  C17_30
REMARK    9  A    between atoms: C13_20  and  C16_28
REMARK   10  A    between atoms: C14_22  and  O7_27
REMARK   11  A    between atoms: C15_24  and  O6_26
REMARK   12  A    between atoms: C16_28  and  O8_29
REMARK   13  A    between atoms: C18_31  and  O18_65
REMARK   14  A    between atoms: C22_36  and  C32_58
REMARK   15  A    between atoms: C24_39  and  C26_42
REMARK   16  A    between atoms: C25_40  and  O11_41
REMARK   17  A    between atoms: C27_44  and  O16_57
REMARK   18  A    between atoms: C28_46  and  O15_56
REMARK   19  A    between atoms: C29_48  and  O14_55
REMARK   20  A    between atoms: C30_50  and  C31_53
REMARK   21  A    between atoms: C31_53  and  O13_54
REMARK   22  A    between atoms: C35_61  and  O17_64
REMARK                            x       y       z     vdW  Elec       q    Type
REMARK                         _______ _______ _______ _____ _____    ______ ____
ROOT
ATOM     12  C   UNL     1      47.371  16.405  20.031  0.00  0.00    -0.178 A 
ATOM     13  C   UNL     1      46.871  16.246  18.752  0.00  0.00    +0.254 A 
ATOM     16  C   UNL     1      47.533  15.401  17.853  0.00  0.00    -0.269 A 
ATOM     17  C   UNL     1      47.035  15.203  16.481  0.00  0.00    +0.426 A 
ATOM     18  C   UNL     1      47.769  14.331  15.642  0.00  0.00    -0.146 A 
ATOM     19  C   UNL     1      48.884  13.718  16.122  0.00  0.00    +0.209 A 
ATOM     28  O   UNL     1      49.328  13.906  17.375  0.00  0.00    -0.211 OA
ATOM     29  O   UNL     1      46.030  15.770  16.083  0.00  0.00    -0.450 OA
ATOM     30  C   UNL     1      48.696  14.719  18.249  0.00  0.00    +0.215 A 
ATOM     31  C   UNL     1      49.183  14.891  19.536  0.00  0.00    -0.141 A 
ATOM     47  C   UNL     1      48.525  15.734  20.419  0.00  0.00    +0.239 A 
ENDROOT
BRANCH  12  11
ATOM     10  C   UNL     1      46.824  18.768  20.555  0.00  0.00    +0.177 C 
ATOM     11  C   UNL     1      46.667  17.314  21.006  0.00  0.00    +0.244 C 
ATOM     50  O   UNL     1      45.278  16.978  21.051  0.00  0.00    -0.326 OA
ATOM     51  C   UNL     1      44.518  17.766  21.969  0.00  0.00    +0.137 C 
ATOM     55  C   UNL     1      44.590  19.239  21.557  0.00  0.00    +0.132 C 
ATOM     58  C   UNL     1      46.055  19.681  21.515  0.00  0.00    +0.174 C 
BRANCH  55  56
ATOM     56  O   UNL     1      43.876  20.036  22.504  0.00  0.00    -0.556 OA
ATOM     57  H   UNL     1      43.887  19.683  23.404  0.00  0.00    +0.385 HD
ENDBRANCH  55  56
BRANCH  58  59
ATOM     59  O   UNL     1      46.137  21.032  21.059  0.00  0.00    -0.540 OA
ATOM     60  H   UNL     1      46.212  21.119  20.098  0.00  0.00    +0.386 HD
ENDBRANCH  58  59
BRANCH  10   9
ATOM      9  O   UNL     1      48.208  19.123  20.564  0.00  0.00    -0.327 OA
BRANCH   9   8
ATOM      8  C   UNL     1      48.524  20.369  20.153  0.00  0.00    +0.491 C 
ATOM     61  O   UNL     1      48.088  20.791  19.099  0.00  0.00    -0.470 OA
BRANCH   8   7
ATOM      6  C   UNL     1      50.707  21.116  20.811  0.00  0.00    +0.146 C 
ATOM      7  C   UNL     1      49.364  21.187  20.951  0.00  0.00    -0.043 C 
BRANCH   6   5
ATOM      3  C   UNL     1      52.226  19.202  17.966  0.00  0.00    +0.097 A 
ATOM      4  C   UNL     1      51.661  20.231  18.693  0.00  0.00    -0.038 A 
ATOM      5  C   UNL     1      51.307  20.025  20.031  0.00  0.00    -0.040 A 
ATOM     62  C   UNL     1      51.527  18.777  20.625  0.00  0.00    +0.039 A 
ATOM     63  C   UNL     1      52.092  17.756  19.893  0.00  0.00    +0.023 A 
ATOM     64  C   UNL     1      52.438  17.959  18.563  0.00  0.00    +0.088 A 
BRANCH   3   2
ATOM      1  C   UNL     1      51.505  19.558  15.727  0.00  0.00    +0.236 C 
ATOM      2  O   UNL     1      52.572  19.398  16.665  0.00  0.00    -0.309 OA
ENDBRANCH   3   2
BRANCH  64  65
ATOM     65  O   UNL     1      52.988  16.948  17.844  0.00  0.00    -0.486 OA
ATOM     66  H   UNL     1      53.129  16.136  18.351  0.00  0.00    +0.386 HD
ENDBRANCH  64  65
ENDBRANCH   6   5
ENDBRANCH   8   7
ENDBRANCH   9   8
ENDBRANCH  10   9
BRANCH  51  52
ATOM     52  C   UNL     1      43.060  17.303  21.954  0.00  0.00    +0.207 C 
BRANCH  52  53
ATOM     53  O   UNL     1      42.200  18.430  22.141  0.00  0.00    -0.561 OA
ATOM     54  H   UNL     1      42.475  19.220  21.657  0.00  0.00    +0.384 HD
ENDBRANCH  52  53
ENDBRANCH  51  52
ENDBRANCH  12  11
BRANCH  19  20
ATOM     20  C   UNL     1      49.635  12.812  15.232  0.00  0.00    -0.082 A 
ATOM     21  C   UNL     1      49.407  11.434  15.282  0.00  0.00    +0.080 A 
ATOM     22  C   UNL     1      50.110  10.591  14.449  0.00  0.00    -0.006 A 
ATOM     23  C   UNL     1      51.044  11.110  13.560  0.00  0.00    +0.135 A 
ATOM     26  C   UNL     1      51.274  12.480  13.508  0.00  0.00    -0.011 A 
ATOM     27  C   UNL     1      50.571  13.330  14.333  0.00  0.00    +0.079 A 
BRANCH  23  24
ATOM     24  O   UNL     1      51.735  10.277  12.741  0.00  0.00    -0.497 OA
ATOM     25  H   UNL     1      51.561   9.338  12.896  0.00  0.00    +0.398 HD
ENDBRANCH  23  24
ENDBRANCH  19  20
BRANCH  31  32
ATOM     32  C   UNL     1      50.428  14.165  19.974  0.00  0.00    +0.239 C 
ATOM     33  C   UNL     1      50.040  12.878  20.705  0.00  0.00    +0.166 C 
ATOM     36  C   UNL     1      51.309  12.177  21.199  0.00  0.00    +0.118 C 
ATOM     39  C   UNL     1      52.095  13.140  22.095  0.00  0.00    +0.130 C 
ATOM     42  C   UNL     1      52.404  14.418  21.310  0.00  0.00    +0.175 C 
ATOM     46  O   UNL     1      51.183  15.002  20.852  0.00  0.00    -0.323 OA
BRANCH  33  34
ATOM     34  O   UNL     1      49.334  12.016  19.811  0.00  0.00    -0.546 OA
ATOM     35  H   UNL     1      49.266  12.356  18.908  0.00  0.00    +0.391 HD
ENDBRANCH  33  34
BRANCH  36  37
ATOM     37  O   UNL     1      50.953  11.012  21.945  0.00  0.00    -0.557 OA
ATOM     38  H   UNL     1      50.211  11.144  22.551  0.00  0.00    +0.384 HD
ENDBRANCH  36  37
BRANCH  39  40
ATOM     40  O   UNL     1      53.316  12.522  22.504  0.00  0.00    -0.552 OA
ATOM     41  H   UNL     1      53.239  11.573  22.673  0.00  0.00    +0.383 HD
ENDBRANCH  39  40
BRANCH  42  43
ATOM     43  C   UNL     1      53.137  15.408  22.216  0.00  0.00    +0.220 C 
BRANCH  43  44
ATOM     44  O   UNL     1      54.244  15.972  21.509  0.00  0.00    -0.564 OA
ATOM     45  H   UNL     1      54.008  16.719  20.942  0.00  0.00    +0.382 HD
ENDBRANCH  43  44
ENDBRANCH  42  43
ENDBRANCH  31  32
BRANCH  13  14
ATOM     14  O   UNL     1      45.748  16.904  18.370  0.00  0.00    -0.455 OA
ATOM     15  H   UNL     1      45.269  16.479  17.645  0.00  0.00    +0.397 HD
ENDBRANCH  13  14
BRANCH  47  48
ATOM     48  O   UNL     1      49.010  15.902  21.675  0.00  0.00    -0.462 OA
ATOM     49  H   UNL     1      49.190  15.074  22.141  0.00  0.00    +0.393 HD
ENDBRANCH  47  48
TORSDOF 21
ENDMDL
MODEL 6
REMARK VINA RESULT:      -4.2      1.596      2.405
REMARK  Name = ZINC95485909
REMARK  22 active torsions:
REMARK  status: ('A' for Active; 'I' for Inactive)
REMARK    1  A    between atoms: C1_1  and  O1_2
REMARK    2  A    between atoms: O1_2  and  C2_3
REMARK    3  A    between atoms: C4_5  and  C8_10
REMARK    4  A    between atoms: C7_8  and  O2_9
REMARK    5  A    between atoms: C9_11  and  C10_12
REMARK    6  A    between atoms: C10_12  and  O4_14
REMARK    7  A    between atoms: O4_14  and  C11_15
REMARK    8  A    between atoms: C12_17  and  C17_30
REMARK    9  A    between atoms: C13_20  and  C16_28
REMARK   10  A    between atoms: C14_22  and  O7_27
REMARK   11  A    between atoms: C15_24  and  O6_26
REMARK   12  A    between atoms: C16_28  and  O8_29
REMARK   13  A    between atoms: C18_31  and  O18_65
REMARK   14  A    between atoms: C22_36  and  C32_58
REMARK   15  A    between atoms: C24_39  and  C26_42
REMARK   16  A    between atoms: C25_40  and  O11_41
REMARK   17  A    between atoms: C27_44  and  O16_57
REMARK   18  A    between atoms: C28_46  and  O15_56
REMARK   19  A    between atoms: C29_48  and  O14_55
REMARK   20  A    between atoms: C30_50  and  C31_53
REMARK   21  A    between atoms: C31_53  and  O13_54
REMARK   22  A    between atoms: C35_61  and  O17_64
REMARK                            x       y       z     vdW  Elec       q    Type
REMARK                         _______ _______ _______ _____ _____    ______ ____
ROOT
ATOM     12  C   UNL     1      47.494  17.553  20.953  0.00  0.00    -0.178 A 
ATOM     13  C   UNL     1      48.763  17.669  21.490  0.00  0.00    +0.254 A 
ATOM     16  C   UNL     1      49.688  16.635  21.301  0.00  0.00    -0.269 A 
ATOM     17  C   UNL     1      51.050  16.717  21.856  0.00  0.00    +0.426 A 
ATOM     18  C   UNL     1      51.918  15.625  21.615  0.00  0.00    -0.146 A 
ATOM     19  C   UNL     1      51.474  14.562  20.892  0.00  0.00    +0.209 A 
ATOM     28  O   UNL     1      50.230  14.499  20.390  0.00  0.00    -0.211 OA
ATOM     29  O   UNL     1      51.415  17.687  22.501  0.00  0.00    -0.450 OA
ATOM     30  C   UNL     1      49.330  15.491  20.568  0.00  0.00    +0.215 A 
ATOM     31  C   UNL     1      48.054  15.393  20.036  0.00  0.00    -0.141 A 
ATOM     47  C   UNL     1      47.140  16.418  20.234  0.00  0.00    +0.239 A 
ENDROOT
BRANCH  12  11
ATOM     10  C   UNL     1      46.571  19.641  19.982  0.00  0.00    +0.177 C 
ATOM     11  C   UNL     1      46.489  18.659  21.153  0.00  0.00    +0.244 C 
ATOM     50  O   UNL     1      45.175  18.102  21.215  0.00  0.00    -0.326 OA
ATOM     51  C   UNL     1      44.142  19.066  21.430  0.00  0.00    +0.137 C 
ATOM     55  C   UNL     1      44.130  20.066  20.270  0.00  0.00    +0.132 C 
ATOM     58  C   UNL     1      45.506  20.728  20.160  0.00  0.00    +0.174 C 
BRANCH  55  56
ATOM     56  O   UNL     1      43.136  21.064  20.509  0.00  0.00    -0.556 OA
ATOM     57  H   UNL     1      42.235  20.779  20.306  0.00  0.00    +0.385 HD
ENDBRANCH  55  56
BRANCH  58  59
ATOM     59  O   UNL     1      45.528  21.607  19.033  0.00  0.00    -0.540 OA
ATOM     60  H   UNL     1      45.464  22.544  19.264  0.00  0.00    +0.386 HD
ENDBRANCH  58  59
BRANCH  10   9
ATOM      9  O   UNL     1      47.867  20.242  19.953  0.00  0.00    -0.327 OA
BRANCH   9   8
ATOM      8  C   UNL     1      48.573  20.120  18.809  0.00  0.00    +0.491 C 
ATOM     61  O   UNL     1      48.649  19.041  18.254  0.00  0.00    -0.470 OA
BRANCH   8   7
ATOM      6  C   UNL     1      50.472  21.129  17.747  0.00  0.00    +0.146 C 
ATOM      7  C   UNL     1      49.226  21.250  18.256  0.00  0.00    -0.043 C 
BRANCH   6   5
ATOM      3  C   UNL     1      51.952  17.710  17.308  0.00  0.00    +0.097 A 
ATOM      4  C   UNL     1      51.218  18.856  17.071  0.00  0.00    -0.038 A 
ATOM      5  C   UNL     1      51.250  19.907  17.994  0.00  0.00    -0.040 A 
ATOM     62  C   UNL     1      52.027  19.792  19.153  0.00  0.00    +0.039 A 
ATOM     63  C   UNL     1      52.756  18.646  19.382  0.00  0.00    +0.023 A 
ATOM     64  C   UNL     1      52.719  17.601  18.468  0.00  0.00    +0.088 A 
BRANCH   3   2
ATOM      1  C   UNL     1      51.241  15.495  16.813  0.00  0.00    +0.236 C 
ATOM      2  O   UNL     1      51.923  16.687  16.414  0.00  0.00    -0.309 OA
ENDBRANCH   3   2
BRANCH  64  65
ATOM     65  O   UNL     1      53.435  16.472  18.702  0.00  0.00    -0.486 OA
ATOM     66  H   UNL     1      54.350  16.514  18.390  0.00  0.00    +0.386 HD
ENDBRANCH  64  65
ENDBRANCH   6   5
ENDBRANCH   8   7
ENDBRANCH   9   8
ENDBRANCH  10   9
BRANCH  51  52
ATOM     52  C   UNL     1      42.789  18.358  21.507  0.00  0.00    +0.207 C 
BRANCH  52  53
ATOM     53  O   UNL     1      42.957  17.074  22.113  0.00  0.00    -0.561 OA
ATOM     54  H   UNL     1      43.739  16.595  21.809  0.00  0.00    +0.384 HD
ENDBRANCH  52  53
ENDBRANCH  51  52
ENDBRANCH  12  11
BRANCH  19  20
ATOM     20  C   UNL     1      52.394  13.434  20.651  0.00  0.00    -0.082 A 
ATOM     21  C   UNL     1      52.820  12.638  21.717  0.00  0.00    +0.080 A 
ATOM     22  C   UNL     1      53.679  11.585  21.488  0.00  0.00    -0.006 A 
ATOM     23  C   UNL     1      54.121  11.315  20.198  0.00  0.00    +0.135 A 
ATOM     26  C   UNL     1      53.699  12.105  19.134  0.00  0.00    -0.011 A 
ATOM     27  C   UNL     1      52.837  13.156  19.355  0.00  0.00    +0.079 A 
BRANCH  23  24
ATOM     24  O   UNL     1      54.966  10.277  19.975  0.00  0.00    -0.497 OA
ATOM     25  H   UNL     1      54.973   9.616  20.681  0.00  0.00    +0.398 HD
ENDBRANCH  23  24
ENDBRANCH  19  20
BRANCH  31  32
ATOM     32  C   UNL     1      47.657  14.171  19.249  0.00  0.00    +0.239 C 
ATOM     33  C   UNL     1      48.248  12.923  19.909  0.00  0.00    +0.166 C 
ATOM     36  C   UNL     1      47.890  11.693  19.069  0.00  0.00    +0.118 C 
ATOM     39  C   UNL     1      48.407  11.895  17.641  0.00  0.00    +0.130 C 
ATOM     42  C   UNL     1      47.810  13.183  17.068  0.00  0.00    +0.175 C 
ATOM     46  O   UNL     1      48.153  14.283  17.913  0.00  0.00    -0.323 OA
BRANCH  33  34
ATOM     34  O   UNL     1      47.709  12.778  21.224  0.00  0.00    -0.546 OA
ATOM     35  H   UNL     1      47.339  11.903  21.404  0.00  0.00    +0.391 HD
ENDBRANCH  33  34
BRANCH  36  37
ATOM     37  O   UNL     1      48.498  10.532  19.639  0.00  0.00    -0.557 OA
ATOM     38  H   UNL     1      48.029   9.708  19.449  0.00  0.00    +0.384 HD
ENDBRANCH  36  37
BRANCH  39  40
ATOM     40  O   UNL     1      48.017  10.785  16.831  0.00  0.00    -0.552 OA
ATOM     41  H   UNL     1      47.068  10.746  16.648  0.00  0.00    +0.383 HD
ENDBRANCH  39  40
BRANCH  42  43
ATOM     43  C   UNL     1      48.368  13.423  15.665  0.00  0.00    +0.220 C 
BRANCH  43  44
ATOM     44  O   UNL     1      47.292  13.713  14.768  0.00  0.00    -0.564 OA
ATOM     45  H   UNL     1      47.529  14.320  14.054  0.00  0.00    +0.382 HD
ENDBRANCH  43  44
ENDBRANCH  42  43
ENDBRANCH  31  32
BRANCH  13  14
ATOM     14  O   UNL     1      49.108  18.774  22.197  0.00  0.00    -0.455 OA
ATOM     15  H   UNL     1      49.098  18.648  23.156  0.00  0.00    +0.397 HD
ENDBRANCH  13  14
BRANCH  47  48
ATOM     48  O   UNL     1      45.891  16.313  19.715  0.00  0.00    -0.462 OA
ATOM     49  H   UNL     1      45.481  15.447  19.848  0.00  0.00    +0.393 HD
ENDBRANCH  47  48
TORSDOF 21
ENDMDL
MODEL 7
REMARK VINA RESULT:      -3.5      1.435      2.238
REMARK  Name = ZINC95485909
REMARK  22 active torsions:
REMARK  status: ('A' for Active; 'I' for Inactive)
REMARK    1  A    between atoms: C1_1  and  O1_2
REMARK    2  A    between atoms: O1_2  and  C2_3
REMARK    3  A    between atoms: C4_5  and  C8_10
REMARK    4  A    between atoms: C7_8  and  O2_9
REMARK    5  A    between atoms: C9_11  and  C10_12
REMARK    6  A    between atoms: C10_12  and  O4_14
REMARK    7  A    between atoms: O4_14  and  C11_15
REMARK    8  A    between atoms: C12_17  and  C17_30
REMARK    9  A    between atoms: C13_20  and  C16_28
REMARK   10  A    between atoms: C14_22  and  O7_27
REMARK   11  A    between atoms: C15_24  and  O6_26
REMARK   12  A    between atoms: C16_28  and  O8_29
REMARK   13  A    between atoms: C18_31  and  O18_65
REMARK   14  A    between atoms: C22_36  and  C32_58
REMARK   15  A    between atoms: C24_39  and  C26_42
REMARK   16  A    between atoms: C25_40  and  O11_41
REMARK   17  A    between atoms: C27_44  and  O16_57
REMARK   18  A    between atoms: C28_46  and  O15_56
REMARK   19  A    between atoms: C29_48  and  O14_55
REMARK   20  A    between atoms: C30_50  and  C31_53
REMARK   21  A    between atoms: C31_53  and  O13_54
REMARK   22  A    between atoms: C35_61  and  O17_64
REMARK                            x       y       z     vdW  Elec       q    Type
REMARK                         _______ _______ _______ _____ _____    ______ ____
ROOT
ATOM     12  C   UNL     1      48.245  16.763  20.474  0.00  0.00    -0.178 A 
ATOM     13  C   UNL     1      49.384  17.121  21.171  0.00  0.00    +0.254 A 
ATOM     16  C   UNL     1      50.551  16.361  21.021  0.00  0.00    -0.269 A 
ATOM     17  C   UNL     1      51.786  16.706  21.745  0.00  0.00    +0.426 A 
ATOM     18  C   UNL     1      52.917  15.882  21.532  0.00  0.00    -0.146 A 
ATOM     19  C   UNL     1      52.826  14.823  20.684  0.00  0.00    +0.209 A 
ATOM     28  O   UNL     1      51.693  14.518  20.029  0.00  0.00    -0.211 OA
ATOM     29  O   UNL     1      51.833  17.665  22.499  0.00  0.00    -0.450 OA
ATOM     30  C   UNL     1      50.563  15.244  20.168  0.00  0.00    +0.215 A 
ATOM     31  C   UNL     1      49.412  14.901  19.477  0.00  0.00    -0.141 A 
ATOM     47  C   UNL     1      48.258  15.655  19.635  0.00  0.00    +0.239 A 
ENDROOT
BRANCH  12  11
ATOM     10  C   UNL     1      46.523  18.070  19.257  0.00  0.00    +0.177 C 
ATOM     11  C   UNL     1      46.983  17.573  20.629  0.00  0.00    +0.244 C 
ATOM     50  O   UNL     1      45.961  16.757  21.206  0.00  0.00    -0.326 OA
ATOM     51  C   UNL     1      44.724  17.437  21.422  0.00  0.00    +0.137 C 
ATOM     55  C   UNL     1      44.173  17.930  20.081  0.00  0.00    +0.132 C 
ATOM     58  C   UNL     1      45.208  18.840  19.414  0.00  0.00    +0.174 C 
BRANCH  55  56
ATOM     56  O   UNL     1      42.964  18.659  20.300  0.00  0.00    -0.556 OA
ATOM     57  H   UNL     1      42.351  18.232  20.913  0.00  0.00    +0.385 HD
ENDBRANCH  55  56
BRANCH  58  59
ATOM     59  O   UNL     1      44.735  19.245  18.128  0.00  0.00    -0.540 OA
ATOM     60  H   UNL     1      45.104  20.084  17.819  0.00  0.00    +0.386 HD
ENDBRANCH  58  59
BRANCH  10   9
ATOM      9  O   UNL     1      47.519  18.933  18.704  0.00  0.00    -0.327 OA
BRANCH   9   8
ATOM      8  C   UNL     1      47.720  20.113  19.326  0.00  0.00    +0.491 C 
ATOM     61  O   UNL     1      47.707  20.171  20.541  0.00  0.00    -0.470 OA
BRANCH   8   7
ATOM      6  C   UNL     1      49.112  21.447  17.898  0.00  0.00    +0.146 C 
ATOM      7  C   UNL     1      47.946  21.287  18.564  0.00  0.00    -0.043 C 
BRANCH   6   5
ATOM      3  C   UNL     1      52.048  19.829  19.580  0.00  0.00    +0.097 A 
ATOM      4  C   UNL     1      50.991  20.683  19.336  0.00  0.00    -0.038 A 
ATOM      5  C   UNL     1      50.239  20.542  18.164  0.00  0.00    -0.040 A 
ATOM     62  C   UNL     1      50.562  19.535  17.246  0.00  0.00    +0.039 A 
ATOM     63  C   UNL     1      51.618  18.687  17.499  0.00  0.00    +0.023 A 
ATOM     64  C   UNL     1      52.368  18.832  18.659  0.00  0.00    +0.088 A 
BRANCH   3   2
ATOM      1  C   UNL     1      52.940  21.286  21.235  0.00  0.00    +0.236 C 
ATOM      2  O   UNL     1      52.781  19.963  20.718  0.00  0.00    -0.309 OA
ENDBRANCH   3   2
BRANCH  64  65
ATOM     65  O   UNL     1      53.411  17.997  18.900  0.00  0.00    -0.486 OA
ATOM     66  H   UNL     1      53.924  17.771  18.112  0.00  0.00    +0.386 HD
ENDBRANCH  64  65
ENDBRANCH   6   5
ENDBRANCH   8   7
ENDBRANCH   9   8
ENDBRANCH  10   9
BRANCH  51  52
ATOM     52  C   UNL     1      43.719  16.480  22.065  0.00  0.00    +0.207 C 
BRANCH  52  53
ATOM     53  O   UNL     1      42.479  17.160  22.274  0.00  0.00    -0.561 OA
ATOM     54  H   UNL     1      41.986  16.850  23.045  0.00  0.00    +0.384 HD
ENDBRANCH  52  53
ENDBRANCH  51  52
ENDBRANCH  12  11
BRANCH  19  20
ATOM     20  C   UNL     1      54.015  13.976  20.475  0.00  0.00    -0.082 A 
ATOM     21  C   UNL     1      55.292  14.542  20.505  0.00  0.00    +0.080 A 
ATOM     22  C   UNL     1      56.400  13.748  20.310  0.00  0.00    -0.006 A 
ATOM     23  C   UNL     1      56.250  12.384  20.084  0.00  0.00    +0.135 A 
ATOM     26  C   UNL     1      54.981  11.817  20.054  0.00  0.00    -0.011 A 
ATOM     27  C   UNL     1      53.868  12.604  20.254  0.00  0.00    +0.079 A 
BRANCH  23  24
ATOM     24  O   UNL     1      57.344  11.605  19.894  0.00  0.00    -0.497 OA
ATOM     25  H   UNL     1      57.174  10.657  19.983  0.00  0.00    +0.398 HD
ENDBRANCH  23  24
ENDBRANCH  19  20
BRANCH  31  32
ATOM     32  C   UNL     1      49.411  13.707  18.559  0.00  0.00    +0.239 C 
ATOM     33  C   UNL     1      50.128  12.539  19.239  0.00  0.00    +0.166 C 
ATOM     36  C   UNL     1      50.176  11.348  18.276  0.00  0.00    +0.118 C 
ATOM     39  C   UNL     1      50.869  11.780  16.980  0.00  0.00    +0.130 C 
ATOM     42  C   UNL     1      50.123  12.979  16.387  0.00  0.00    +0.175 C 
ATOM     46  O   UNL     1      50.087  14.039  17.344  0.00  0.00    -0.323 OA
BRANCH  33  34
ATOM     34  O   UNL     1      49.421  12.168  20.423  0.00  0.00    -0.546 OA
ATOM     35  H   UNL     1      49.670  11.303  20.776  0.00  0.00    +0.391 HD
ENDBRANCH  33  34
BRANCH  36  37
ATOM     37  O   UNL     1      50.907  10.277  18.876  0.00  0.00    -0.557 OA
ATOM     38  H   UNL     1      50.919  10.301  19.843  0.00  0.00    +0.384 HD
ENDBRANCH  36  37
BRANCH  39  40
ATOM     40  O   UNL     1      50.856  10.698  16.048  0.00  0.00    -0.552 OA
ATOM     41  H   UNL     1      51.452  10.819  15.296  0.00  0.00    +0.383 HD
ENDBRANCH  39  40
BRANCH  42  43
ATOM     43  C   UNL     1      50.844  13.454  15.125  0.00  0.00    +0.220 C 
BRANCH  43  44
ATOM     44  O   UNL     1      52.064  12.725  14.970  0.00  0.00    -0.564 OA
ATOM     45  H   UNL     1      52.653  13.086  14.293  0.00  0.00    +0.382 HD
ENDBRANCH  43  44
ENDBRANCH  42  43
ENDBRANCH  31  32
BRANCH  13  14
ATOM     14  O   UNL     1      49.372  18.199  21.994  0.00  0.00    -0.455 OA
ATOM     15  H   UNL     1      48.881  18.955  21.645  0.00  0.00    +0.397 HD
ENDBRANCH  13  14
BRANCH  47  48
ATOM     48  O   UNL     1      47.132  15.310  18.960  0.00  0.00    -0.462 OA
ATOM     49  H   UNL     1      46.856  15.958  18.297  0.00  0.00    +0.393 HD
ENDBRANCH  47  48
TORSDOF 21
ENDMDL
MODEL 8
REMARK VINA RESULT:      -2.9      2.222      4.012
REMARK  Name = ZINC95485909
REMARK  22 active torsions:
REMARK  status: ('A' for Active; 'I' for Inactive)
REMARK    1  A    between atoms: C1_1  and  O1_2
REMARK    2  A    between atoms: O1_2  and  C2_3
REMARK    3  A    between atoms: C4_5  and  C8_10
REMARK    4  A    between atoms: C7_8  and  O2_9
REMARK    5  A    between atoms: C9_11  and  C10_12
REMARK    6  A    between atoms: C10_12  and  O4_14
REMARK    7  A    between atoms: O4_14  and  C11_15
REMARK    8  A    between atoms: C12_17  and  C17_30
REMARK    9  A    between atoms: C13_20  and  C16_28
REMARK   10  A    between atoms: C14_22  and  O7_27
REMARK   11  A    between atoms: C15_24  and  O6_26
REMARK   12  A    between atoms: C16_28  and  O8_29
REMARK   13  A    between atoms: C18_31  and  O18_65
REMARK   14  A    between atoms: C22_36  and  C32_58
REMARK   15  A    between atoms: C24_39  and  C26_42
REMARK   16  A    between atoms: C25_40  and  O11_41
REMARK   17  A    between atoms: C27_44  and  O16_57
REMARK   18  A    between atoms: C28_46  and  O15_56
REMARK   19  A    between atoms: C29_48  and  O14_55
REMARK   20  A    between atoms: C30_50  and  C31_53
REMARK   21  A    between atoms: C31_53  and  O13_54
REMARK   22  A    between atoms: C35_61  and  O17_64
REMARK                            x       y       z     vdW  Elec       q    Type
REMARK                         _______ _______ _______ _____ _____    ______ ____
ROOT
ATOM     12  C   UNL     1      46.242  17.192  21.008  0.00  0.00    -0.178 A 
ATOM     13  C   UNL     1      47.463  17.581  21.527  0.00  0.00    +0.254 A 
ATOM     16  C   UNL     1      48.583  16.759  21.346  0.00  0.00    -0.269 A 
ATOM     17  C   UNL     1      49.902  17.135  21.883  0.00  0.00    +0.426 A 
ATOM     18  C   UNL     1      50.976  16.243  21.652  0.00  0.00    -0.146 A 
ATOM     19  C   UNL     1      50.758  15.096  20.955  0.00  0.00    +0.209 A 
ATOM     28  O   UNL     1      49.551  14.765  20.469  0.00  0.00    -0.211 OA
ATOM     29  O   UNL     1      50.061  18.173  22.504  0.00  0.00    -0.450 OA
ATOM     30  C   UNL     1      48.466  15.550  20.640  0.00  0.00    +0.215 A 
ATOM     31  C   UNL     1      47.234  15.177  20.125  0.00  0.00    -0.141 A 
ATOM     47  C   UNL     1      46.128  15.993  20.315  0.00  0.00    +0.239 A 
ENDROOT
BRANCH  12  11
ATOM     10  C   UNL     1      44.780  18.879  19.925  0.00  0.00    +0.177 C 
ATOM     11  C   UNL     1      45.031  18.068  21.199  0.00  0.00    +0.244 C 
ATOM     50  O   UNL     1      43.891  17.251  21.474  0.00  0.00    -0.326 OA
ATOM     51  C   UNL     1      42.686  17.986  21.698  0.00  0.00    +0.137 C 
ATOM     55  C   UNL     1      42.342  18.795  20.444  0.00  0.00    +0.132 C 
ATOM     58  C   UNL     1      43.513  19.721  20.104  0.00  0.00    +0.174 C 
BRANCH  55  56
ATOM     56  O   UNL     1      41.169  19.574  20.685  0.00  0.00    -0.556 OA
ATOM     57  H   UNL     1      40.879  20.095  19.925  0.00  0.00    +0.385 HD
ENDBRANCH  55  56
BRANCH  58  59
ATOM     59  O   UNL     1      43.232  20.425  18.892  0.00  0.00    -0.540 OA
ATOM     60  H   UNL     1      43.692  21.272  18.814  0.00  0.00    +0.386 HD
ENDBRANCH  58  59
BRANCH  10   9
ATOM      9  O   UNL     1      45.895  19.739  19.681  0.00  0.00    -0.327 OA
BRANCH   9   8
ATOM      8  C   UNL     1      46.745  19.375  18.698  0.00  0.00    +0.491 C 
ATOM     61  O   UNL     1      46.398  18.563  17.863  0.00  0.00    -0.470 OA
BRANCH   8   7
ATOM      6  C   UNL     1      48.354  21.006  19.411  0.00  0.00    +0.146 C 
ATOM      7  C   UNL     1      48.045  19.940  18.640  0.00  0.00    -0.043 C 
BRANCH   6   5
ATOM      3  C   UNL     1      45.224  22.972  20.050  0.00  0.00    +0.097 A 
ATOM      4  C   UNL     1      46.222  22.285  19.387  0.00  0.00    -0.038 A 
ATOM      5  C   UNL     1      47.290  21.740  20.110  0.00  0.00    -0.040 A 
ATOM     62  C   UNL     1      47.340  21.894  21.500  0.00  0.00    +0.039 A 
ATOM     63  C   UNL     1      46.340  22.581  22.153  0.00  0.00    +0.023 A 
ATOM     64  C   UNL     1      45.284  23.127  21.435  0.00  0.00    +0.088 A 
BRANCH   3   2
ATOM      1  C   UNL     1      44.397  24.780  18.744  0.00  0.00    +0.236 C 
ATOM      2  O   UNL     1      44.185  23.503  19.352  0.00  0.00    -0.309 OA
ENDBRANCH   3   2
BRANCH  64  65
ATOM     65  O   UNL     1      44.305  23.808  22.083  0.00  0.00    -0.486 OA
ATOM     66  H   UNL     1      43.719  24.307  21.497  0.00  0.00    +0.386 HD
ENDBRANCH  64  65
ENDBRANCH   6   5
ENDBRANCH   8   7
ENDBRANCH   9   8
ENDBRANCH  10   9
BRANCH  51  52
ATOM     52  C   UNL     1      41.546  17.016  22.008  0.00  0.00    +0.207 C 
BRANCH  52  53
ATOM     53  O   UNL     1      40.313  17.560  21.529  0.00  0.00    -0.561 OA
ATOM     54  H   UNL     1      39.584  17.497  22.160  0.00  0.00    +0.384 HD
ENDBRANCH  52  53
ENDBRANCH  51  52
ENDBRANCH  12  11
BRANCH  19  20
ATOM     20  C   UNL     1      51.891  14.180  20.724  0.00  0.00    -0.082 A 
ATOM     21  C   UNL     1      53.203  14.631  20.894  0.00  0.00    +0.080 A 
ATOM     22  C   UNL     1      54.258  13.772  20.678  0.00  0.00    -0.006 A 
ATOM     23  C   UNL     1      54.019  12.459  20.290  0.00  0.00    +0.135 A 
ATOM     26  C   UNL     1      52.716  12.006  20.119  0.00  0.00    -0.011 A 
ATOM     27  C   UNL     1      51.655  12.857  20.339  0.00  0.00    +0.079 A 
BRANCH  23  24
ATOM     24  O   UNL     1      55.062  11.616  20.079  0.00  0.00    -0.497 OA
ATOM     25  H   UNL     1      54.940  11.019  19.327  0.00  0.00    +0.398 HD
ENDBRANCH  23  24
ENDBRANCH  19  20
BRANCH  31  32
ATOM     32  C   UNL     1      47.094  13.884  19.366  0.00  0.00    +0.239 C 
ATOM     33  C   UNL     1      48.043  12.839  19.957  0.00  0.00    +0.166 C 
ATOM     36  C   UNL     1      47.939  11.546  19.143  0.00  0.00    +0.118 C 
ATOM     39  C   UNL     1      48.254  11.853  17.675  0.00  0.00    +0.130 C 
ATOM     42  C   UNL     1      47.296  12.936  17.172  0.00  0.00    +0.175 C 
ATOM     46  O   UNL     1      47.421  14.100  17.992  0.00  0.00    -0.323 OA
BRANCH  33  34
ATOM     34  O   UNL     1      47.682  12.579  21.315  0.00  0.00    -0.546 OA
ATOM     35  H   UNL     1      47.352  11.683  21.470  0.00  0.00    +0.391 HD
ENDBRANCH  33  34
BRANCH  36  37
ATOM     37  O   UNL     1      48.874  10.588  19.643  0.00  0.00    -0.557 OA
ATOM     38  H   UNL     1      49.665  10.487  19.096  0.00  0.00    +0.384 HD
ENDBRANCH  36  37
BRANCH  39  40
ATOM     40  O   UNL     1      48.090  10.668  16.894  0.00  0.00    -0.552 OA
ATOM     41  H   UNL     1      48.867  10.092  16.885  0.00  0.00    +0.383 HD
ENDBRANCH  39  40
BRANCH  42  43
ATOM     43  C   UNL     1      47.643  13.291  15.725  0.00  0.00    +0.220 C 
BRANCH  43  44
ATOM     44  O   UNL     1      46.949  14.482  15.348  0.00  0.00    -0.564 OA
ATOM     45  H   UNL     1      46.997  15.190  16.005  0.00  0.00    +0.382 HD
ENDBRANCH  43  44
ENDBRANCH  42  43
ENDBRANCH  31  32
BRANCH  13  14
ATOM     14  O   UNL     1      47.576  18.749  22.209  0.00  0.00    -0.455 OA
ATOM     15  H   UNL     1      46.764  19.273  22.228  0.00  0.00    +0.397 HD
ENDBRANCH  13  14
BRANCH  47  48
ATOM     48  O   UNL     1      44.923  15.619  19.813  0.00  0.00    -0.462 OA
ATOM     49  H   UNL     1      44.977  15.151  18.969  0.00  0.00    +0.393 HD
ENDBRANCH  47  48
TORSDOF 21
ENDMDL
MODEL 9
REMARK VINA RESULT:      -2.8      2.691      5.761
REMARK  Name = ZINC95485909
REMARK  22 active torsions:
REMARK  status: ('A' for Active; 'I' for Inactive)
REMARK    1  A    between atoms: C1_1  and  O1_2
REMARK    2  A    between atoms: O1_2  and  C2_3
REMARK    3  A    between atoms: C4_5  and  C8_10
REMARK    4  A    between atoms: C7_8  and  O2_9
REMARK    5  A    between atoms: C9_11  and  C10_12
REMARK    6  A    between atoms: C10_12  and  O4_14
REMARK    7  A    between atoms: O4_14  and  C11_15
REMARK    8  A    between atoms: C12_17  and  C17_30
REMARK    9  A    between atoms: C13_20  and  C16_28
REMARK   10  A    between atoms: C14_22  and  O7_27
REMARK   11  A    between atoms: C15_24  and  O6_26
REMARK   12  A    between atoms: C16_28  and  O8_29
REMARK   13  A    between atoms: C18_31  and  O18_65
REMARK   14  A    between atoms: C22_36  and  C32_58
REMARK   15  A    between atoms: C24_39  and  C26_42
REMARK   16  A    between atoms: C25_40  and  O11_41
REMARK   17  A    between atoms: C27_44  and  O16_57
REMARK   18  A    between atoms: C28_46  and  O15_56
REMARK   19  A    between atoms: C29_48  and  O14_55
REMARK   20  A    between atoms: C30_50  and  C31_53
REMARK   21  A    between atoms: C31_53  and  O13_54
REMARK   22  A    between atoms: C35_61  and  O17_64
REMARK                            x       y       z     vdW  Elec       q    Type
REMARK                         _______ _______ _______ _____ _____    ______ ____
ROOT
ATOM     12  C   UNL     1      47.317  19.245  19.850  0.00  0.00    -0.178 A 
ATOM     13  C   UNL     1      48.479  19.864  20.274  0.00  0.00    +0.254 A 
ATOM     16  C   UNL     1      49.675  19.136  20.308  0.00  0.00    -0.269 A 
ATOM     17  C   UNL     1      50.934  19.757  20.753  0.00  0.00    +0.426 A 
ATOM     18  C   UNL     1      52.094  18.945  20.756  0.00  0.00    -0.146 A 
ATOM     19  C   UNL     1      52.007  17.649  20.353  0.00  0.00    +0.209 A 
ATOM     28  O   UNL     1      50.852  17.095  19.948  0.00  0.00    -0.211 OA
ATOM     29  O   UNL     1      50.976  20.924  21.108  0.00  0.00    -0.450 OA
ATOM     30  C   UNL     1      49.694  17.788  19.913  0.00  0.00    +0.215 A 
ATOM     31  C   UNL     1      48.520  17.185  19.490  0.00  0.00    -0.141 A 
ATOM     47  C   UNL     1      47.338  17.910  19.465  0.00  0.00    +0.239 A 
ENDROOT
BRANCH  12  11
ATOM     10  C   UNL     1      45.427  20.087  21.218  0.00  0.00    +0.177 C 
ATOM     11  C   UNL     1      46.024  20.018  19.811  0.00  0.00    +0.244 C 
ATOM     50  O   UNL     1      46.276  21.343  19.336  0.00  0.00    -0.326 OA
ATOM     51  C   UNL     1      45.107  22.158  19.235  0.00  0.00    +0.137 C 
ATOM     55  C   UNL     1      44.472  22.312  20.620  0.00  0.00    +0.132 C 
ATOM     58  C   UNL     1      44.146  20.926  21.182  0.00  0.00    +0.174 C 
BRANCH  55  56
ATOM     56  O   UNL     1      43.272  23.081  20.513  0.00  0.00    -0.556 OA
ATOM     57  H   UNL     1      43.407  23.978  20.179  0.00  0.00    +0.385 HD
ENDBRANCH  55  56
BRANCH  58  59
ATOM     59  O   UNL     1      43.622  21.056  22.505  0.00  0.00    -0.540 OA
ATOM     60  H   UNL     1      43.050  21.826  22.628  0.00  0.00    +0.386 HD
ENDBRANCH  58  59
BRANCH  10   9
ATOM      9  O   UNL     1      45.121  18.767  21.671  0.00  0.00    -0.327 OA
BRANCH   9   8
ATOM      8  C   UNL     1      44.044  18.166  21.123  0.00  0.00    +0.491 C 
ATOM     61  O   UNL     1      44.026  17.917  19.933  0.00  0.00    -0.470 OA
BRANCH   8   7
ATOM      6  C   UNL     1      41.686  18.186  21.561  0.00  0.00    +0.146 C 
ATOM      7  C   UNL     1      42.933  17.825  21.935  0.00  0.00    -0.043 C 
BRANCH   6   5
ATOM      3  C   UNL     1      40.268  20.957  19.467  0.00  0.00    +0.097 A 
ATOM      4  C   UNL     1      40.438  20.058  20.502  0.00  0.00    -0.038 A 
ATOM      5  C   UNL     1      41.498  19.144  20.463  0.00  0.00    -0.040 A 
ATOM     62  C   UNL     1      42.379  19.147  19.375  0.00  0.00    +0.039 A 
ATOM     63  C   UNL     1      42.202  20.047  18.348  0.00  0.00    +0.023 A 
ATOM     64  C   UNL     1      41.147  20.950  18.384  0.00  0.00    +0.088 A 
BRANCH   3   2
ATOM      1  C   UNL     1      38.105  21.558  18.682  0.00  0.00    +0.236 C 
ATOM      2  O   UNL     1      39.239  21.846  19.502  0.00  0.00    -0.309 OA
ENDBRANCH   3   2
BRANCH  64  65
ATOM     65  O   UNL     1      40.973  21.831  17.366  0.00  0.00    -0.486 OA
ATOM     66  H   UNL     1      40.841  22.744  17.655  0.00  0.00    +0.386 HD
ENDBRANCH  64  65
ENDBRANCH   6   5
ENDBRANCH   8   7
ENDBRANCH   9   8
ENDBRANCH  10   9
BRANCH  51  52
ATOM     52  C   UNL     1      45.490  23.537  18.694  0.00  0.00    +0.207 C 
BRANCH  52  53
ATOM     53  O   UNL     1      44.306  24.264  18.359  0.00  0.00    -0.561 OA
ATOM     54  H   UNL     1      43.591  23.714  18.011  0.00  0.00    +0.384 HD
ENDBRANCH  52  53
ENDBRANCH  51  52
ENDBRANCH  12  11
BRANCH  19  20
ATOM     20  C   UNL     1      53.227  16.820  20.362  0.00  0.00    -0.082 A 
ATOM     21  C   UNL     1      53.895  16.569  21.564  0.00  0.00    +0.080 A 
ATOM     22  C   UNL     1      55.033  15.794  21.568  0.00  0.00    -0.006 A 
ATOM     23  C   UNL     1      55.518  15.261  20.379  0.00  0.00    +0.135 A 
ATOM     26  C   UNL     1      54.856  15.508  19.181  0.00  0.00    -0.011 A 
ATOM     27  C   UNL     1      53.714  16.278  19.170  0.00  0.00    +0.079 A 
BRANCH  23  24
ATOM     24  O   UNL     1      56.640  14.497  20.387  0.00  0.00    -0.497 OA
ATOM     25  H   UNL     1      57.151  14.556  21.206  0.00  0.00    +0.398 HD
ENDBRANCH  23  24
ENDBRANCH  19  20
BRANCH  31  32
ATOM     32  C   UNL     1      48.527  15.740  19.063  0.00  0.00    +0.239 C 
ATOM     33  C   UNL     1      48.639  15.658  17.538  0.00  0.00    +0.166 C 
ATOM     36  C   UNL     1      48.584  14.189  17.108  0.00  0.00    +0.118 C 
ATOM     39  C   UNL     1      47.287  13.563  17.630  0.00  0.00    +0.130 C 
ATOM     42  C   UNL     1      47.227  13.726  19.152  0.00  0.00    +0.175 C 
ATOM     46  O   UNL     1      47.315  15.112  19.485  0.00  0.00    -0.323 OA
BRANCH  33  34
ATOM     34  O   UNL     1      49.876  16.234  17.119  0.00  0.00    -0.546 OA
ATOM     35  H   UNL     1      50.625  16.020  17.693  0.00  0.00    +0.391 HD
ENDBRANCH  33  34
BRANCH  36  37
ATOM     37  O   UNL     1      48.616  14.106  15.682  0.00  0.00    -0.557 OA
ATOM     38  H   UNL     1      48.455  13.218  15.335  0.00  0.00    +0.384 HD
ENDBRANCH  36  37
BRANCH  39  40
ATOM     40  O   UNL     1      47.259  12.174  17.296  0.00  0.00    -0.552 OA
ATOM     41  H   UNL     1      46.369  11.816  17.177  0.00  0.00    +0.383 HD
ENDBRANCH  39  40
BRANCH  42  43
ATOM     43  C   UNL     1      45.908  13.156  19.674  0.00  0.00    +0.220 C 
BRANCH  43  44
ATOM     44  O   UNL     1      44.898  13.298  18.672  0.00  0.00    -0.564 OA
ATOM     45  H   UNL     1      45.190  13.779  17.886  0.00  0.00    +0.382 HD
ENDBRANCH  43  44
ENDBRANCH  42  43
ENDBRANCH  31  32
BRANCH  13  14
ATOM     14  O   UNL     1      48.459  21.166  20.655  0.00  0.00    -0.455 OA
ATOM     15  H   UNL     1      48.574  21.300  21.605  0.00  0.00    +0.397 HD
ENDBRANCH  13  14
BRANCH  47  48
ATOM     48  O   UNL     1      46.191  17.311  19.055  0.00  0.00    -0.462 OA
ATOM     49  H   UNL     1      45.452  17.414  19.670  0.00  0.00    +0.393 HD
ENDBRANCH  47  48
TORSDOF 21
ENDMDL
