MODEL 1
REMARK VINA RESULT:      -5.7      0.000      0.000
REMARK  Name = ZINC95486035
REMARK  27 active torsions:
REMARK  status: ('A' for Active; 'I' for Inactive)
REMARK    1  A    between atoms: C1_1  and  C2_2
REMARK    2  A    between atoms: C2_2  and  C16_20
REMARK    3  A    between atoms: C3_3  and  C4_4
REMARK    4  A    between atoms: C4_4  and  C5_5
REMARK    5  A    between atoms: C5_5  and  C6_6
REMARK    6  A    between atoms: C7_7  and  C8_8
REMARK    7  A    between atoms: C7_7  and  C9_9
REMARK    8  A    between atoms: C9_9  and  C10_10
REMARK    9  A    between atoms: C10_10  and  C11_11
REMARK   10  A    between atoms: C11_11  and  C12_13
REMARK   11  A    between atoms: C11_11  and  O3_19
REMARK   12  A    between atoms: C12_13  and  C13_14
REMARK   13  A    between atoms: C12_13  and  C14_15
REMARK   14  A    between atoms: C12_13  and  O2_18
REMARK   15  A    between atoms: C14_15  and  C15_16
REMARK   16  A    between atoms: C15_16  and  O1_17
REMARK   17  A    between atoms: C16_20  and  C17_21
REMARK   18  A    between atoms: C17_21  and  C18_22
REMARK   19  A    between atoms: C19_23  and  C20_24
REMARK   20  A    between atoms: C19_23  and  C21_25
REMARK   21  A    between atoms: C21_25  and  C22_26
REMARK   22  A    between atoms: C22_26  and  C23_27
REMARK   23  A    between atoms: C23_27  and  C24_29
REMARK   24  A    between atoms: C23_27  and  O5_33
REMARK   25  A    between atoms: C24_29  and  C25_30
REMARK   26  A    between atoms: C24_29  and  C26_31
REMARK   27  A    between atoms: C24_29  and  O4_32
REMARK                            x       y       z     vdW  Elec       q    Type
REMARK                         _______ _______ _______ _____ _____    ______ ____
ROOT
ATOM      1  C   UNL     1      51.919  20.752  16.063  0.00  0.00    +0.071 C 
ATOM      2  C   UNL     1      51.855  19.459  16.835  0.00  0.00    -0.127 C 
ATOM     18  C   UNL     1      52.069  19.456  18.127  0.00  0.00    -0.057 C 
ENDROOT
BRANCH   2   3
ATOM      3  C   UNL     1      51.546  18.169  16.120  0.00  0.00    +0.056 C 
BRANCH   3   4
ATOM      4  C   UNL     1      50.903  17.185  17.098  0.00  0.00    +0.054 C 
BRANCH   4   5
ATOM      5  C   UNL     1      49.407  17.373  17.090  0.00  0.00    -0.056 C 
ATOM      6  C   UNL     1      48.732  17.305  18.211  0.00  0.00    -0.126 C 
ATOM     17  C   UNL     1      49.453  17.045  19.509  0.00  0.00    +0.071 C 
BRANCH   6   7
ATOM      7  C   UNL     1      47.236  17.485  18.201  0.00  0.00    +0.059 C 
BRANCH   7   8
ATOM      8  C   UNL     1      46.601  16.428  17.295  0.00  0.00    +0.006 C 
BRANCH   8   9
ATOM      9  C   UNL     1      46.719  15.053  17.954  0.00  0.00    +0.182 C 
BRANCH   9  12
ATOM     12  C   UNL     1      47.056  14.005  16.892  0.00  0.00    +0.096 C 
ATOM     15  C   UNL     1      46.256  12.729  17.165  0.00  0.00    +0.057 C 
ATOM     16  C   UNL     1      48.551  13.689  16.943  0.00  0.00    +0.018 C 
BRANCH  12  13
ATOM     13  O   UNL     1      46.718  14.511  15.600  0.00  0.00    -0.554 OA
ATOM     14  H   UNL     1      46.985  13.935  14.870  0.00  0.00    +0.377 HD
ENDBRANCH  12  13
ENDBRANCH   9  12
BRANCH   9  10
ATOM     10  O   UNL     1      45.478  14.716  18.580  0.00  0.00    -0.553 OA
ATOM     11  H   UNL     1      44.776  15.364  18.432  0.00  0.00    +0.373 HD
ENDBRANCH   9  10
ENDBRANCH   8   9
ENDBRANCH   7   8
ENDBRANCH   6   7
ENDBRANCH   4   5
ENDBRANCH   3   4
ENDBRANCH   2   3
BRANCH  18  19
ATOM     19  C   UNL     1      52.254  20.758  18.863  0.00  0.00    +0.049 C 
BRANCH  19  20
ATOM     20  C   UNL     1      51.062  20.991  19.794  0.00  0.00    +0.053 C 
BRANCH  20  21
ATOM     21  C   UNL     1      49.783  20.916  19.000  0.00  0.00    -0.056 C 
ATOM     22  C   UNL     1      48.642  20.719  19.613  0.00  0.00    -0.126 C 
ATOM     36  C   UNL     1      48.615  20.504  21.104  0.00  0.00    +0.071 C 
BRANCH  22  23
ATOM     23  C   UNL     1      47.357  20.706  18.827  0.00  0.00    +0.060 C 
BRANCH  23  24
ATOM     24  C   UNL     1      46.176  20.917  19.775  0.00  0.00    +0.009 C 
BRANCH  24  25
ATOM     25  C   UNL     1      44.950  21.360  18.973  0.00  0.00    +0.189 C 
BRANCH  25  26
ATOM     26  O   UNL     1      45.077  22.743  18.636  0.00  0.00    -0.553 OA
ATOM     27  H   UNL     1      44.232  23.207  18.553  0.00  0.00    +0.371 HD
ENDBRANCH  25  26
BRANCH  25  28
ATOM     28  C   UNL     1      43.688  21.154  19.813  0.00  0.00    +0.105 C 
ATOM     35  C   UNL     1      43.996  20.198  20.967  0.00  0.00    +0.065 C 
BRANCH  28  29
ATOM     29  O   UNL     1      43.255  22.411  20.338  0.00  0.00    -0.552 OA
ATOM     30  H   UNL     1      42.607  22.336  21.053  0.00  0.00    +0.373 HD
ENDBRANCH  28  29
BRANCH  28  31
ATOM     31  C   UNL     1      42.585  20.558  18.938  0.00  0.00    +0.016 C 
BRANCH  31  32
ATOM     32  C   UNL     1      41.309  21.390  19.089  0.00  0.00    +0.175 C 
BRANCH  32  33
ATOM     33  O   UNL     1      41.416  22.576  18.299  0.00  0.00    -0.577 OA
ATOM     34  H   UNL     1      42.321  22.903  18.199  0.00  0.00    +0.381 HD
ENDBRANCH  32  33
ENDBRANCH  31  32
ENDBRANCH  28  31
ENDBRANCH  25  28
ENDBRANCH  24  25
ENDBRANCH  23  24
ENDBRANCH  22  23
ENDBRANCH  20  21
ENDBRANCH  19  20
ENDBRANCH  18  19
TORSDOF 21
ENDMDL
MODEL 2
REMARK VINA RESULT:      -5.5      1.648      2.434
REMARK  Name = ZINC95486035
REMARK  27 active torsions:
REMARK  status: ('A' for Active; 'I' for Inactive)
REMARK    1  A    between atoms: C1_1  and  C2_2
REMARK    2  A    between atoms: C2_2  and  C16_20
REMARK    3  A    between atoms: C3_3  and  C4_4
REMARK    4  A    between atoms: C4_4  and  C5_5
REMARK    5  A    between atoms: C5_5  and  C6_6
REMARK    6  A    between atoms: C7_7  and  C8_8
REMARK    7  A    between atoms: C7_7  and  C9_9
REMARK    8  A    between atoms: C9_9  and  C10_10
REMARK    9  A    between atoms: C10_10  and  C11_11
REMARK   10  A    between atoms: C11_11  and  C12_13
REMARK   11  A    between atoms: C11_11  and  O3_19
REMARK   12  A    between atoms: C12_13  and  C13_14
REMARK   13  A    between atoms: C12_13  and  C14_15
REMARK   14  A    between atoms: C12_13  and  O2_18
REMARK   15  A    between atoms: C14_15  and  C15_16
REMARK   16  A    between atoms: C15_16  and  O1_17
REMARK   17  A    between atoms: C16_20  and  C17_21
REMARK   18  A    between atoms: C17_21  and  C18_22
REMARK   19  A    between atoms: C19_23  and  C20_24
REMARK   20  A    between atoms: C19_23  and  C21_25
REMARK   21  A    between atoms: C21_25  and  C22_26
REMARK   22  A    between atoms: C22_26  and  C23_27
REMARK   23  A    between atoms: C23_27  and  C24_29
REMARK   24  A    between atoms: C23_27  and  O5_33
REMARK   25  A    between atoms: C24_29  and  C25_30
REMARK   26  A    between atoms: C24_29  and  C26_31
REMARK   27  A    between atoms: C24_29  and  O4_32
REMARK                            x       y       z     vdW  Elec       q    Type
REMARK                         _______ _______ _______ _____ _____    ______ ____
ROOT
ATOM      1  C   UNL     1      51.965  19.897  15.761  0.00  0.00    +0.071 C 
ATOM      2  C   UNL     1      51.804  18.858  16.841  0.00  0.00    -0.127 C 
ATOM     18  C   UNL     1      52.050  19.167  18.090  0.00  0.00    -0.057 C 
ENDROOT
BRANCH   2   3
ATOM      3  C   UNL     1      51.359  17.463  16.484  0.00  0.00    +0.056 C 
BRANCH   3   4
ATOM      4  C   UNL     1      50.629  16.840  17.675  0.00  0.00    +0.054 C 
BRANCH   4   5
ATOM      5  C   UNL     1      49.141  16.996  17.490  0.00  0.00    -0.056 C 
ATOM      6  C   UNL     1      48.341  16.911  18.523  0.00  0.00    -0.126 C 
ATOM     17  C   UNL     1      48.909  16.667  19.898  0.00  0.00    +0.071 C 
BRANCH   6   7
ATOM      7  C   UNL     1      46.853  17.057  18.337  0.00  0.00    +0.059 C 
BRANCH   7   8
ATOM      8  C   UNL     1      46.206  17.441  19.670  0.00  0.00    +0.006 C 
BRANCH   8   9
ATOM      9  C   UNL     1      45.075  16.461  19.988  0.00  0.00    +0.182 C 
BRANCH   9  12
ATOM     12  C   UNL     1      45.088  16.134  21.483  0.00  0.00    +0.096 C 
ATOM     15  C   UNL     1      45.323  14.634  21.673  0.00  0.00    +0.057 C 
ATOM     16  C   UNL     1      43.746  16.522  22.103  0.00  0.00    +0.018 C 
BRANCH  12  13
ATOM     13  O   UNL     1      46.138  16.865  22.121  0.00  0.00    -0.554 OA
ATOM     14  H   UNL     1      45.869  17.303  22.940  0.00  0.00    +0.377 HD
ENDBRANCH  12  13
ENDBRANCH   9  12
BRANCH   9  10
ATOM     10  O   UNL     1      45.259  15.260  19.235  0.00  0.00    -0.553 OA
ATOM     11  H   UNL     1      44.714  14.520  19.536  0.00  0.00    +0.373 HD
ENDBRANCH   9  10
ENDBRANCH   8   9
ENDBRANCH   7   8
ENDBRANCH   6   7
ENDBRANCH   4   5
ENDBRANCH   3   4
ENDBRANCH   2   3
BRANCH  18  19
ATOM     19  C   UNL     1      52.373  20.591  18.464  0.00  0.00    +0.049 C 
BRANCH  19  20
ATOM     20  C   UNL     1      51.300  21.123  19.417  0.00  0.00    +0.053 C 
BRANCH  20  21
ATOM     21  C   UNL     1      49.951  21.039  18.751  0.00  0.00    -0.056 C 
ATOM     22  C   UNL     1      48.899  20.684  19.446  0.00  0.00    -0.126 C 
ATOM     36  C   UNL     1      49.047  20.298  20.895  0.00  0.00    +0.071 C 
BRANCH  22  23
ATOM     23  C   UNL     1      47.539  20.660  18.796  0.00  0.00    +0.060 C 
BRANCH  23  24
ATOM     24  C   UNL     1      46.484  21.121  19.802  0.00  0.00    +0.009 C 
BRANCH  24  25
ATOM     25  C   UNL     1      45.148  21.325  19.083  0.00  0.00    +0.189 C 
BRANCH  25  26
ATOM     26  O   UNL     1      45.041  22.683  18.655  0.00  0.00    -0.553 OA
ATOM     27  H   UNL     1      45.879  23.075  18.372  0.00  0.00    +0.371 HD
ENDBRANCH  25  26
BRANCH  25  28
ATOM     28  C   UNL     1      43.999  20.999  20.039  0.00  0.00    +0.105 C 
ATOM     35  C   UNL     1      44.515  20.108  21.170  0.00  0.00    +0.065 C 
BRANCH  28  29
ATOM     29  O   UNL     1      43.478  22.212  20.588  0.00  0.00    -0.552 OA
ATOM     30  H   UNL     1      42.587  22.127  20.954  0.00  0.00    +0.373 HD
ENDBRANCH  28  29
BRANCH  28  31
ATOM     31  C   UNL     1      42.894  20.268  19.277  0.00  0.00    +0.016 C 
BRANCH  31  32
ATOM     32  C   UNL     1      41.639  21.142  19.234  0.00  0.00    +0.175 C 
BRANCH  32  33
ATOM     33  O   UNL     1      41.866  22.259  18.370  0.00  0.00    -0.577 OA
ATOM     34  H   UNL     1      42.692  22.209  17.870  0.00  0.00    +0.381 HD
ENDBRANCH  32  33
ENDBRANCH  31  32
ENDBRANCH  28  31
ENDBRANCH  25  28
ENDBRANCH  24  25
ENDBRANCH  23  24
ENDBRANCH  22  23
ENDBRANCH  20  21
ENDBRANCH  19  20
ENDBRANCH  18  19
TORSDOF 21
ENDMDL
MODEL 3
REMARK VINA RESULT:      -5.3      2.745      7.154
REMARK  Name = ZINC95486035
REMARK  27 active torsions:
REMARK  status: ('A' for Active; 'I' for Inactive)
REMARK    1  A    between atoms: C1_1  and  C2_2
REMARK    2  A    between atoms: C2_2  and  C16_20
REMARK    3  A    between atoms: C3_3  and  C4_4
REMARK    4  A    between atoms: C4_4  and  C5_5
REMARK    5  A    between atoms: C5_5  and  C6_6
REMARK    6  A    between atoms: C7_7  and  C8_8
REMARK    7  A    between atoms: C7_7  and  C9_9
REMARK    8  A    between atoms: C9_9  and  C10_10
REMARK    9  A    between atoms: C10_10  and  C11_11
REMARK   10  A    between atoms: C11_11  and  C12_13
REMARK   11  A    between atoms: C11_11  and  O3_19
REMARK   12  A    between atoms: C12_13  and  C13_14
REMARK   13  A    between atoms: C12_13  and  C14_15
REMARK   14  A    between atoms: C12_13  and  O2_18
REMARK   15  A    between atoms: C14_15  and  C15_16
REMARK   16  A    between atoms: C15_16  and  O1_17
REMARK   17  A    between atoms: C16_20  and  C17_21
REMARK   18  A    between atoms: C17_21  and  C18_22
REMARK   19  A    between atoms: C19_23  and  C20_24
REMARK   20  A    between atoms: C19_23  and  C21_25
REMARK   21  A    between atoms: C21_25  and  C22_26
REMARK   22  A    between atoms: C22_26  and  C23_27
REMARK   23  A    between atoms: C23_27  and  C24_29
REMARK   24  A    between atoms: C23_27  and  O5_33
REMARK   25  A    between atoms: C24_29  and  C25_30
REMARK   26  A    between atoms: C24_29  and  C26_31
REMARK   27  A    between atoms: C24_29  and  O4_32
REMARK                            x       y       z     vdW  Elec       q    Type
REMARK                         _______ _______ _______ _____ _____    ______ ____
ROOT
ATOM      1  C   UNL     1      44.466  24.332  19.070  0.00  0.00    +0.071 C 
ATOM      2  C   UNL     1      44.625  23.194  20.046  0.00  0.00    -0.127 C 
ATOM     18  C   UNL     1      43.712  22.256  20.111  0.00  0.00    -0.057 C 
ENDROOT
BRANCH   2   3
ATOM      3  C   UNL     1      45.832  23.135  20.945  0.00  0.00    +0.056 C 
BRANCH   3   4
ATOM      4  C   UNL     1      46.140  21.677  21.291  0.00  0.00    +0.054 C 
BRANCH   4   5
ATOM      5  C   UNL     1      47.622  21.432  21.162  0.00  0.00    -0.056 C 
ATOM      6  C   UNL     1      48.116  20.986  20.033  0.00  0.00    -0.126 C 
ATOM     17  C   UNL     1      47.204  20.726  18.862  0.00  0.00    +0.071 C 
BRANCH   6   7
ATOM      7  C   UNL     1      49.596  20.733  19.908  0.00  0.00    +0.059 C 
BRANCH   7   8
ATOM      8  C   UNL     1      49.862  19.859  18.680  0.00  0.00    +0.006 C 
BRANCH   8   9
ATOM      9  C   UNL     1      50.869  20.559  17.765  0.00  0.00    +0.182 C 
BRANCH   9  12
ATOM     12  C   UNL     1      51.740  19.511  17.068  0.00  0.00    +0.096 C 
ATOM     15  C   UNL     1      52.200  20.052  15.713  0.00  0.00    +0.057 C 
ATOM     16  C   UNL     1      50.930  18.231  16.858  0.00  0.00    +0.018 C 
BRANCH  12  13
ATOM     13  O   UNL     1      52.881  19.226  17.880  0.00  0.00    -0.554 OA
ATOM     14  H   UNL     1      53.637  18.879  17.386  0.00  0.00    +0.377 HD
ENDBRANCH  12  13
ENDBRANCH   9  12
BRANCH   9  10
ATOM     10  O   UNL     1      51.697  21.426  18.543  0.00  0.00    -0.553 OA
ATOM     11  H   UNL     1      52.644  21.261  18.442  0.00  0.00    +0.373 HD
ENDBRANCH   9  10
ENDBRANCH   8   9
ENDBRANCH   7   8
ENDBRANCH   6   7
ENDBRANCH   4   5
ENDBRANCH   3   4
ENDBRANCH   2   3
BRANCH  18  19
ATOM     19  C   UNL     1      42.570  22.246  19.128  0.00  0.00    +0.049 C 
BRANCH  19  20
ATOM     20  C   UNL     1      42.036  20.819  18.982  0.00  0.00    +0.053 C 
BRANCH  20  21
ATOM     21  C   UNL     1      43.094  19.840  19.424  0.00  0.00    -0.056 C 
ATOM     22  C   UNL     1      42.814  18.939  20.333  0.00  0.00    -0.126 C 
ATOM     36  C   UNL     1      41.454  18.921  20.982  0.00  0.00    +0.071 C 
BRANCH  22  23
ATOM     23  C   UNL     1      43.852  17.921  20.729  0.00  0.00    +0.060 C 
BRANCH  23  24
ATOM     24  C   UNL     1      45.082  18.072  19.834  0.00  0.00    +0.009 C 
BRANCH  24  25
ATOM     25  C   UNL     1      45.433  16.717  19.215  0.00  0.00    +0.189 C 
BRANCH  25  26
ATOM     26  O   UNL     1      44.814  15.674  19.970  0.00  0.00    -0.553 OA
ATOM     27  H   UNL     1      43.985  15.935  20.395  0.00  0.00    +0.371 HD
ENDBRANCH  25  26
BRANCH  25  28
ATOM     28  C   UNL     1      46.951  16.526  19.231  0.00  0.00    +0.105 C 
ATOM     35  C   UNL     1      47.545  17.270  20.428  0.00  0.00    +0.065 C 
BRANCH  28  29
ATOM     29  O   UNL     1      47.255  15.133  19.338  0.00  0.00    -0.552 OA
ATOM     30  H   UNL     1      47.617  14.874  20.196  0.00  0.00    +0.373 HD
ENDBRANCH  28  29
BRANCH  28  31
ATOM     31  C   UNL     1      47.549  17.081  17.938  0.00  0.00    +0.016 C 
BRANCH  31  32
ATOM     32  C   UNL     1      46.668  16.677  16.754  0.00  0.00    +0.175 C 
BRANCH  32  33
ATOM     33  O   UNL     1      47.057  15.382  16.291  0.00  0.00    -0.577 OA
ATOM     34  H   UNL     1      46.964  15.260  15.336  0.00  0.00    +0.381 HD
ENDBRANCH  32  33
ENDBRANCH  31  32
ENDBRANCH  28  31
ENDBRANCH  25  28
ENDBRANCH  24  25
ENDBRANCH  23  24
ENDBRANCH  22  23
ENDBRANCH  20  21
ENDBRANCH  19  20
ENDBRANCH  18  19
TORSDOF 21
ENDMDL
MODEL 4
REMARK VINA RESULT:      -5.3      2.635      7.442
REMARK  Name = ZINC95486035
REMARK  27 active torsions:
REMARK  status: ('A' for Active; 'I' for Inactive)
REMARK    1  A    between atoms: C1_1  and  C2_2
REMARK    2  A    between atoms: C2_2  and  C16_20
REMARK    3  A    between atoms: C3_3  and  C4_4
REMARK    4  A    between atoms: C4_4  and  C5_5
REMARK    5  A    between atoms: C5_5  and  C6_6
REMARK    6  A    between atoms: C7_7  and  C8_8
REMARK    7  A    between atoms: C7_7  and  C9_9
REMARK    8  A    between atoms: C9_9  and  C10_10
REMARK    9  A    between atoms: C10_10  and  C11_11
REMARK   10  A    between atoms: C11_11  and  C12_13
REMARK   11  A    between atoms: C11_11  and  O3_19
REMARK   12  A    between atoms: C12_13  and  C13_14
REMARK   13  A    between atoms: C12_13  and  C14_15
REMARK   14  A    between atoms: C12_13  and  O2_18
REMARK   15  A    between atoms: C14_15  and  C15_16
REMARK   16  A    between atoms: C15_16  and  O1_17
REMARK   17  A    between atoms: C16_20  and  C17_21
REMARK   18  A    between atoms: C17_21  and  C18_22
REMARK   19  A    between atoms: C19_23  and  C20_24
REMARK   20  A    between atoms: C19_23  and  C21_25
REMARK   21  A    between atoms: C21_25  and  C22_26
REMARK   22  A    between atoms: C22_26  and  C23_27
REMARK   23  A    between atoms: C23_27  and  C24_29
REMARK   24  A    between atoms: C23_27  and  O5_33
REMARK   25  A    between atoms: C24_29  and  C25_30
REMARK   26  A    between atoms: C24_29  and  C26_31
REMARK   27  A    between atoms: C24_29  and  O4_32
REMARK                            x       y       z     vdW  Elec       q    Type
REMARK                         _______ _______ _______ _____ _____    ______ ____
ROOT
ATOM      1  C   UNL     1      45.811  20.641  18.543  0.00  0.00    +0.071 C 
ATOM      2  C   UNL     1      46.698  19.423  18.581  0.00  0.00    -0.127 C 
ATOM     18  C   UNL     1      47.859  19.476  19.185  0.00  0.00    -0.057 C 
ENDROOT
BRANCH   2   3
ATOM      3  C   UNL     1      46.249  18.144  17.923  0.00  0.00    +0.056 C 
BRANCH   3   4
ATOM      4  C   UNL     1      46.006  17.078  18.993  0.00  0.00    +0.054 C 
BRANCH   4   5
ATOM      5  C   UNL     1      44.703  17.361  19.696  0.00  0.00    -0.056 C 
ATOM      6  C   UNL     1      44.681  17.516  20.997  0.00  0.00    -0.126 C 
ATOM     17  C   UNL     1      45.960  17.419  21.789  0.00  0.00    +0.071 C 
BRANCH   6   7
ATOM      7  C   UNL     1      43.377  17.789  21.701  0.00  0.00    +0.059 C 
BRANCH   7   8
ATOM      8  C   UNL     1      42.941  19.229  21.427  0.00  0.00    +0.006 C 
BRANCH   8   9
ATOM      9  C   UNL     1      41.639  19.224  20.624  0.00  0.00    +0.182 C 
BRANCH   9  12
ATOM     12  C   UNL     1      41.687  20.328  19.566  0.00  0.00    +0.096 C 
ATOM     15  C   UNL     1      40.280  20.890  19.353  0.00  0.00    +0.057 C 
ATOM     16  C   UNL     1      42.211  19.752  18.249  0.00  0.00    +0.018 C 
BRANCH  12  13
ATOM     13  O   UNL     1      42.556  21.373  20.008  0.00  0.00    -0.554 OA
ATOM     14  H   UNL     1      42.096  22.184  20.265  0.00  0.00    +0.377 HD
ENDBRANCH  12  13
ENDBRANCH   9  12
BRANCH   9  10
ATOM     10  O   UNL     1      40.536  19.454  21.503  0.00  0.00    -0.553 OA
ATOM     11  H   UNL     1      40.226  18.661  21.961  0.00  0.00    +0.373 HD
ENDBRANCH   9  10
ENDBRANCH   8   9
ENDBRANCH   7   8
ENDBRANCH   6   7
ENDBRANCH   4   5
ENDBRANCH   3   4
ENDBRANCH   2   3
BRANCH  18  19
ATOM     19  C   UNL     1      48.254  20.714  19.950  0.00  0.00    +0.049 C 
BRANCH  19  20
ATOM     20  C   UNL     1      49.762  20.934  19.818  0.00  0.00    +0.053 C 
BRANCH  20  21
ATOM     21  C   UNL     1      50.155  20.862  18.364  0.00  0.00    -0.056 C 
ATOM     22  C   UNL     1      51.421  20.853  18.027  0.00  0.00    -0.126 C 
ATOM     36  C   UNL     1      52.484  20.980  19.088  0.00  0.00    +0.071 C 
BRANCH  22  23
ATOM     23  C   UNL     1      51.813  20.718  16.579  0.00  0.00    +0.060 C 
BRANCH  23  24
ATOM     24  C   UNL     1      51.186  19.451  15.997  0.00  0.00    +0.009 C 
BRANCH  24  25
ATOM     25  C   UNL     1      52.110  18.258  16.258  0.00  0.00    +0.189 C 
BRANCH  25  26
ATOM     26  O   UNL     1      52.489  17.668  15.013  0.00  0.00    -0.553 OA
ATOM     27  H   UNL     1      52.329  16.716  14.964  0.00  0.00    +0.371 HD
ENDBRANCH  25  26
BRANCH  25  28
ATOM     28  C   UNL     1      51.375  17.221  17.110  0.00  0.00    +0.105 C 
ATOM     35  C   UNL     1      49.870  17.485  17.048  0.00  0.00    +0.065 C 
BRANCH  28  29
ATOM     29  O   UNL     1      51.650  15.911  16.609  0.00  0.00    -0.552 OA
ATOM     30  H   UNL     1      52.535  15.586  16.823  0.00  0.00    +0.373 HD
ENDBRANCH  28  29
BRANCH  28  31
ATOM     31  C   UNL     1      51.851  17.323  18.560  0.00  0.00    +0.016 C 
BRANCH  31  32
ATOM     32  C   UNL     1      52.928  16.268  18.819  0.00  0.00    +0.175 C 
BRANCH  32  33
ATOM     33  O   UNL     1      52.559  15.478  19.951  0.00  0.00    -0.577 OA
ATOM     34  H   UNL     1      53.214  14.809  20.195  0.00  0.00    +0.381 HD
ENDBRANCH  32  33
ENDBRANCH  31  32
ENDBRANCH  28  31
ENDBRANCH  25  28
ENDBRANCH  24  25
ENDBRANCH  23  24
ENDBRANCH  22  23
ENDBRANCH  20  21
ENDBRANCH  19  20
ENDBRANCH  18  19
TORSDOF 21
ENDMDL
MODEL 5
REMARK VINA RESULT:      -5.3      2.050      6.148
REMARK  Name = ZINC95486035
REMARK  27 active torsions:
REMARK  status: ('A' for Active; 'I' for Inactive)
REMARK    1  A    between atoms: C1_1  and  C2_2
REMARK    2  A    between atoms: C2_2  and  C16_20
REMARK    3  A    between atoms: C3_3  and  C4_4
REMARK    4  A    between atoms: C4_4  and  C5_5
REMARK    5  A    between atoms: C5_5  and  C6_6
REMARK    6  A    between atoms: C7_7  and  C8_8
REMARK    7  A    between atoms: C7_7  and  C9_9
REMARK    8  A    between atoms: C9_9  and  C10_10
REMARK    9  A    between atoms: C10_10  and  C11_11
REMARK   10  A    between atoms: C11_11  and  C12_13
REMARK   11  A    between atoms: C11_11  and  O3_19
REMARK   12  A    between atoms: C12_13  and  C13_14
REMARK   13  A    between atoms: C12_13  and  C14_15
REMARK   14  A    between atoms: C12_13  and  O2_18
REMARK   15  A    between atoms: C14_15  and  C15_16
REMARK   16  A    between atoms: C15_16  and  O1_17
REMARK   17  A    between atoms: C16_20  and  C17_21
REMARK   18  A    between atoms: C17_21  and  C18_22
REMARK   19  A    between atoms: C19_23  and  C20_24
REMARK   20  A    between atoms: C19_23  and  C21_25
REMARK   21  A    between atoms: C21_25  and  C22_26
REMARK   22  A    between atoms: C22_26  and  C23_27
REMARK   23  A    between atoms: C23_27  and  C24_29
REMARK   24  A    between atoms: C23_27  and  O5_33
REMARK   25  A    between atoms: C24_29  and  C25_30
REMARK   26  A    between atoms: C24_29  and  C26_31
REMARK   27  A    between atoms: C24_29  and  O4_32
REMARK                            x       y       z     vdW  Elec       q    Type
REMARK                         _______ _______ _______ _____ _____    ______ ____
ROOT
ATOM      1  C   UNL     1      51.483  21.188  16.404  0.00  0.00    +0.071 C 
ATOM      2  C   UNL     1      51.465  20.484  17.736  0.00  0.00    -0.127 C 
ATOM     18  C   UNL     1      51.624  19.185  17.792  0.00  0.00    -0.057 C 
ENDROOT
BRANCH   2   3
ATOM      3  C   UNL     1      51.264  21.274  19.003  0.00  0.00    +0.056 C 
BRANCH   3   4
ATOM      4  C   UNL     1      50.083  20.695  19.784  0.00  0.00    +0.054 C 
BRANCH   4   5
ATOM      5  C   UNL     1      48.810  20.919  19.008  0.00  0.00    -0.056 C 
ATOM      6  C   UNL     1      47.689  20.379  19.418  0.00  0.00    -0.126 C 
ATOM     17  C   UNL     1      47.672  19.539  20.670  0.00  0.00    +0.071 C 
BRANCH   6   7
ATOM      7  C   UNL     1      46.419  20.595  18.638  0.00  0.00    +0.059 C 
BRANCH   7   8
ATOM      8  C   UNL     1      45.249  20.776  19.607  0.00  0.00    +0.006 C 
BRANCH   8   9
ATOM      9  C   UNL     1      45.059  22.265  19.905  0.00  0.00    +0.182 C 
BRANCH   9  12
ATOM     12  C   UNL     1      45.128  22.496  21.415  0.00  0.00    +0.096 C 
ATOM     15  C   UNL     1      46.544  22.934  21.798  0.00  0.00    +0.057 C 
ATOM     16  C   UNL     1      44.780  21.200  22.148  0.00  0.00    +0.018 C 
BRANCH  12  13
ATOM     13  O   UNL     1      44.198  23.517  21.784  0.00  0.00    -0.554 OA
ATOM     14  H   UNL     1      44.374  23.916  22.647  0.00  0.00    +0.377 HD
ENDBRANCH  12  13
ENDBRANCH   9  12
BRANCH   9  10
ATOM     10  O   UNL     1      43.785  22.689  19.415  0.00  0.00    -0.553 OA
ATOM     11  H   UNL     1      43.169  22.964  20.108  0.00  0.00    +0.373 HD
ENDBRANCH   9  10
ENDBRANCH   8   9
ENDBRANCH   7   8
ENDBRANCH   6   7
ENDBRANCH   4   5
ENDBRANCH   3   4
ENDBRANCH   2   3
BRANCH  18  19
ATOM     19  C   UNL     1      51.950  18.411  16.541  0.00  0.00    +0.049 C 
BRANCH  19  20
ATOM     20  C   UNL     1      51.069  17.162  16.471  0.00  0.00    +0.053 C 
BRANCH  20  21
ATOM     21  C   UNL     1      50.612  16.791  17.859  0.00  0.00    -0.056 C 
ATOM     22  C   UNL     1      49.342  16.862  18.171  0.00  0.00    -0.126 C 
ATOM     36  C   UNL     1      48.345  17.374  17.164  0.00  0.00    +0.071 C 
BRANCH  22  23
ATOM     23  C   UNL     1      48.878  16.432  19.539  0.00  0.00    +0.060 C 
BRANCH  23  24
ATOM     24  C   UNL     1      47.609  15.589  19.405  0.00  0.00    +0.009 C 
BRANCH  24  25
ATOM     25  C   UNL     1      46.821  15.643  20.716  0.00  0.00    +0.189 C 
BRANCH  25  26
ATOM     26  O   UNL     1      47.002  14.419  21.431  0.00  0.00    -0.553 OA
ATOM     27  H   UNL     1      47.355  14.533  22.324  0.00  0.00    +0.371 HD
ENDBRANCH  25  26
BRANCH  25  28
ATOM     28  C   UNL     1      45.335  15.839  20.410  0.00  0.00    +0.105 C 
ATOM     35  C   UNL     1      45.154  17.081  19.537  0.00  0.00    +0.065 C 
BRANCH  28  29
ATOM     29  O   UNL     1      44.836  14.692  19.717  0.00  0.00    -0.552 OA
ATOM     30  H   UNL     1      45.525  14.142  19.320  0.00  0.00    +0.373 HD
ENDBRANCH  28  29
BRANCH  28  31
ATOM     31  C   UNL     1      44.564  16.019  21.719  0.00  0.00    +0.016 C 
BRANCH  31  32
ATOM     32  C   UNL     1      43.859  17.377  21.712  0.00  0.00    +0.175 C 
BRANCH  32  33
ATOM     33  O   UNL     1      42.502  17.212  22.129  0.00  0.00    -0.577 OA
ATOM     34  H   UNL     1      41.987  16.614  21.570  0.00  0.00    +0.381 HD
ENDBRANCH  32  33
ENDBRANCH  31  32
ENDBRANCH  28  31
ENDBRANCH  25  28
ENDBRANCH  24  25
ENDBRANCH  23  24
ENDBRANCH  22  23
ENDBRANCH  20  21
ENDBRANCH  19  20
ENDBRANCH  18  19
TORSDOF 21
ENDMDL
MODEL 6
REMARK VINA RESULT:      -5.1      2.841      7.406
REMARK  Name = ZINC95486035
REMARK  27 active torsions:
REMARK  status: ('A' for Active; 'I' for Inactive)
REMARK    1  A    between atoms: C1_1  and  C2_2
REMARK    2  A    between atoms: C2_2  and  C16_20
REMARK    3  A    between atoms: C3_3  and  C4_4
REMARK    4  A    between atoms: C4_4  and  C5_5
REMARK    5  A    between atoms: C5_5  and  C6_6
REMARK    6  A    between atoms: C7_7  and  C8_8
REMARK    7  A    between atoms: C7_7  and  C9_9
REMARK    8  A    between atoms: C9_9  and  C10_10
REMARK    9  A    between atoms: C10_10  and  C11_11
REMARK   10  A    between atoms: C11_11  and  C12_13
REMARK   11  A    between atoms: C11_11  and  O3_19
REMARK   12  A    between atoms: C12_13  and  C13_14
REMARK   13  A    between atoms: C12_13  and  C14_15
REMARK   14  A    between atoms: C12_13  and  O2_18
REMARK   15  A    between atoms: C14_15  and  C15_16
REMARK   16  A    between atoms: C15_16  and  O1_17
REMARK   17  A    between atoms: C16_20  and  C17_21
REMARK   18  A    between atoms: C17_21  and  C18_22
REMARK   19  A    between atoms: C19_23  and  C20_24
REMARK   20  A    between atoms: C19_23  and  C21_25
REMARK   21  A    between atoms: C21_25  and  C22_26
REMARK   22  A    between atoms: C22_26  and  C23_27
REMARK   23  A    between atoms: C23_27  and  C24_29
REMARK   24  A    between atoms: C23_27  and  O5_33
REMARK   25  A    between atoms: C24_29  and  C25_30
REMARK   26  A    between atoms: C24_29  and  C26_31
REMARK   27  A    between atoms: C24_29  and  O4_32
REMARK                            x       y       z     vdW  Elec       q    Type
REMARK                         _______ _______ _______ _____ _____    ______ ____
ROOT
ATOM      1  C   UNL     1      47.465  15.211  19.912  0.00  0.00    +0.071 C 
ATOM      2  C   UNL     1      46.006  15.565  20.045  0.00  0.00    -0.127 C 
ATOM     18  C   UNL     1      45.431  16.323  19.144  0.00  0.00    -0.057 C 
ENDROOT
BRANCH   2   3
ATOM      3  C   UNL     1      45.209  15.049  21.214  0.00  0.00    +0.056 C 
BRANCH   3   4
ATOM      4  C   UNL     1      45.015  16.171  22.236  0.00  0.00    +0.054 C 
BRANCH   4   5
ATOM      5  C   UNL     1      44.077  17.207  21.672  0.00  0.00    -0.056 C 
ATOM      6  C   UNL     1      44.386  18.478  21.743  0.00  0.00    -0.126 C 
ATOM     17  C   UNL     1      45.684  18.903  22.382  0.00  0.00    +0.071 C 
BRANCH   6   7
ATOM      7  C   UNL     1      43.444  19.515  21.188  0.00  0.00    +0.059 C 
BRANCH   7   8
ATOM      8  C   UNL     1      42.899  19.040  19.839  0.00  0.00    +0.006 C 
BRANCH   8   9
ATOM      9  C   UNL     1      41.386  19.255  19.796  0.00  0.00    +0.182 C 
BRANCH   9  12
ATOM     12  C   UNL     1      41.027  20.121  18.586  0.00  0.00    +0.096 C 
ATOM     15  C   UNL     1      40.132  21.278  19.035  0.00  0.00    +0.057 C 
ATOM     16  C   UNL     1      40.284  19.272  17.553  0.00  0.00    +0.018 C 
BRANCH  12  13
ATOM     13  O   UNL     1      42.223  20.643  18.003  0.00  0.00    -0.554 OA
ATOM     14  H   UNL     1      42.279  21.608  18.019  0.00  0.00    +0.377 HD
ENDBRANCH  12  13
ENDBRANCH   9  12
BRANCH   9  10
ATOM     10  O   UNL     1      40.963  19.912  20.993  0.00  0.00    -0.553 OA
ATOM     11  H   UNL     1      40.059  19.698  21.261  0.00  0.00    +0.373 HD
ENDBRANCH   9  10
ENDBRANCH   8   9
ENDBRANCH   7   8
ENDBRANCH   6   7
ENDBRANCH   4   5
ENDBRANCH   3   4
ENDBRANCH   2   3
BRANCH  18  19
ATOM     19  C   UNL     1      46.193  16.736  17.910  0.00  0.00    +0.049 C 
BRANCH  19  20
ATOM     20  C   UNL     1      46.151  18.260  17.773  0.00  0.00    +0.053 C 
BRANCH  20  21
ATOM     21  C   UNL     1      47.299  18.865  18.539  0.00  0.00    -0.056 C 
ATOM     22  C   UNL     1      47.206  20.086  19.004  0.00  0.00    -0.126 C 
ATOM     36  C   UNL     1      45.976  20.909  18.719  0.00  0.00    +0.071 C 
BRANCH  22  23
ATOM     23  C   UNL     1      48.329  20.668  19.823  0.00  0.00    +0.060 C 
BRANCH  23  24
ATOM     24  C   UNL     1      49.534  20.935  18.920  0.00  0.00    +0.009 C 
BRANCH  24  25
ATOM     25  C   UNL     1      50.761  20.212  19.481  0.00  0.00    +0.189 C 
BRANCH  25  26
ATOM     26  O   UNL     1      51.645  21.165  20.073  0.00  0.00    -0.553 OA
ATOM     27  H   UNL     1      52.064  20.860  20.890  0.00  0.00    +0.371 HD
ENDBRANCH  25  26
BRANCH  25  28
ATOM     28  C   UNL     1      51.485  19.482  18.348  0.00  0.00    +0.105 C 
ATOM     35  C   UNL     1      52.310  18.332  18.928  0.00  0.00    +0.065 C 
BRANCH  28  29
ATOM     29  O   UNL     1      50.524  18.961  17.426  0.00  0.00    -0.552 OA
ATOM     30  H   UNL     1      50.756  19.098  16.497  0.00  0.00    +0.373 HD
ENDBRANCH  28  29
BRANCH  28  31
ATOM     31  C   UNL     1      52.411  20.458  17.622  0.00  0.00    +0.016 C 
BRANCH  31  32
ATOM     32  C   UNL     1      52.008  20.544  16.148  0.00  0.00    +0.175 C 
BRANCH  32  33
ATOM     33  O   UNL     1      51.708  21.901  15.814  0.00  0.00    -0.577 OA
ATOM     34  H   UNL     1      50.994  22.000  15.170  0.00  0.00    +0.381 HD
ENDBRANCH  32  33
ENDBRANCH  31  32
ENDBRANCH  28  31
ENDBRANCH  25  28
ENDBRANCH  24  25
ENDBRANCH  23  24
ENDBRANCH  22  23
ENDBRANCH  20  21
ENDBRANCH  19  20
ENDBRANCH  18  19
TORSDOF 21
ENDMDL
MODEL 7
REMARK VINA RESULT:      -5.1      3.041      7.266
REMARK  Name = ZINC95486035
REMARK  27 active torsions:
REMARK  status: ('A' for Active; 'I' for Inactive)
REMARK    1  A    between atoms: C1_1  and  C2_2
REMARK    2  A    between atoms: C2_2  and  C16_20
REMARK    3  A    between atoms: C3_3  and  C4_4
REMARK    4  A    between atoms: C4_4  and  C5_5
REMARK    5  A    between atoms: C5_5  and  C6_6
REMARK    6  A    between atoms: C7_7  and  C8_8
REMARK    7  A    between atoms: C7_7  and  C9_9
REMARK    8  A    between atoms: C9_9  and  C10_10
REMARK    9  A    between atoms: C10_10  and  C11_11
REMARK   10  A    between atoms: C11_11  and  C12_13
REMARK   11  A    between atoms: C11_11  and  O3_19
REMARK   12  A    between atoms: C12_13  and  C13_14
REMARK   13  A    between atoms: C12_13  and  C14_15
REMARK   14  A    between atoms: C12_13  and  O2_18
REMARK   15  A    between atoms: C14_15  and  C15_16
REMARK   16  A    between atoms: C15_16  and  O1_17
REMARK   17  A    between atoms: C16_20  and  C17_21
REMARK   18  A    between atoms: C17_21  and  C18_22
REMARK   19  A    between atoms: C19_23  and  C20_24
REMARK   20  A    between atoms: C19_23  and  C21_25
REMARK   21  A    between atoms: C21_25  and  C22_26
REMARK   22  A    between atoms: C22_26  and  C23_27
REMARK   23  A    between atoms: C23_27  and  C24_29
REMARK   24  A    between atoms: C23_27  and  O5_33
REMARK   25  A    between atoms: C24_29  and  C25_30
REMARK   26  A    between atoms: C24_29  and  C26_31
REMARK   27  A    between atoms: C24_29  and  O4_32
REMARK                            x       y       z     vdW  Elec       q    Type
REMARK                         _______ _______ _______ _____ _____    ______ ____
ROOT
ATOM      1  C   UNL     1      44.329  19.638  18.407  0.00  0.00    +0.071 C 
ATOM      2  C   UNL     1      44.278  20.486  19.651  0.00  0.00    -0.127 C 
ATOM     18  C   UNL     1      43.518  20.128  20.657  0.00  0.00    -0.057 C 
ENDROOT
BRANCH   2   3
ATOM      3  C   UNL     1      45.100  21.745  19.740  0.00  0.00    +0.056 C 
BRANCH   3   4
ATOM      4  C   UNL     1      46.203  21.562  20.784  0.00  0.00    +0.054 C 
BRANCH   4   5
ATOM      5  C   UNL     1      47.502  21.236  20.092  0.00  0.00    -0.056 C 
ATOM      6  C   UNL     1      48.573  20.975  20.799  0.00  0.00    -0.126 C 
ATOM     17  C   UNL     1      48.505  20.993  22.305  0.00  0.00    +0.071 C 
BRANCH   6   7
ATOM      7  C   UNL     1      49.874  20.659  20.108  0.00  0.00    +0.059 C 
BRANCH   7   8
ATOM      8  C   UNL     1      49.645  20.593  18.596  0.00  0.00    +0.006 C 
BRANCH   8   9
ATOM      9  C   UNL     1      50.930  20.993  17.868  0.00  0.00    +0.182 C 
BRANCH   9  12
ATOM     12  C   UNL     1      51.574  19.752  17.248  0.00  0.00    +0.096 C 
ATOM     15  C   UNL     1      52.676  19.233  18.175  0.00  0.00    +0.057 C 
ATOM     16  C   UNL     1      52.178  20.114  15.891  0.00  0.00    +0.018 C 
BRANCH  12  13
ATOM     13  O   UNL     1      50.582  18.738  17.073  0.00  0.00    -0.554 OA
ATOM     14  H   UNL     1      50.677  17.988  17.676  0.00  0.00    +0.377 HD
ENDBRANCH  12  13
ENDBRANCH   9  12
BRANCH   9  10
ATOM     10  O   UNL     1      51.839  21.588  18.798  0.00  0.00    -0.553 OA
ATOM     11  H   UNL     1      52.730  21.718  18.447  0.00  0.00    +0.373 HD
ENDBRANCH   9  10
ENDBRANCH   8   9
ENDBRANCH   7   8
ENDBRANCH   6   7
ENDBRANCH   4   5
ENDBRANCH   3   4
ENDBRANCH   2   3
BRANCH  18  19
ATOM     19  C   UNL     1      42.793  18.807  20.620  0.00  0.00    +0.049 C 
BRANCH  19  20
ATOM     20  C   UNL     1      43.391  17.868  21.670  0.00  0.00    +0.053 C 
BRANCH  20  21
ATOM     21  C   UNL     1      44.890  18.027  21.690  0.00  0.00    -0.056 C 
ATOM     22  C   UNL     1      45.652  17.124  21.124  0.00  0.00    -0.126 C 
ATOM     36  C   UNL     1      45.034  15.895  20.509  0.00  0.00    +0.071 C 
BRANCH  22  23
ATOM     23  C   UNL     1      47.146  17.314  21.089  0.00  0.00    +0.060 C 
BRANCH  23  24
ATOM     24  C   UNL     1      47.586  17.639  19.661  0.00  0.00    +0.009 C 
BRANCH  24  25
ATOM     25  C   UNL     1      48.455  16.500  19.123  0.00  0.00    +0.189 C 
BRANCH  25  26
ATOM     26  O   UNL     1      49.808  16.946  19.010  0.00  0.00    -0.553 OA
ATOM     27  H   UNL     1      50.464  16.245  19.124  0.00  0.00    +0.371 HD
ENDBRANCH  25  26
BRANCH  25  28
ATOM     28  C   UNL     1      47.943  16.074  17.746  0.00  0.00    +0.105 C 
ATOM     35  C   UNL     1      46.706  16.899  17.385  0.00  0.00    +0.065 C 
BRANCH  28  29
ATOM     29  O   UNL     1      48.963  16.293  16.769  0.00  0.00    -0.552 OA
ATOM     30  H   UNL     1      49.152  15.521  16.218  0.00  0.00    +0.373 HD
ENDBRANCH  28  29
BRANCH  28  31
ATOM     31  C   UNL     1      47.575  14.590  17.776  0.00  0.00    +0.016 C 
BRANCH  31  32
ATOM     32  C   UNL     1      46.617  14.279  16.624  0.00  0.00    +0.175 C 
BRANCH  32  33
ATOM     33  O   UNL     1      47.367  14.044  15.430  0.00  0.00    -0.577 OA
ATOM     34  H   UNL     1      48.035  13.349  15.514  0.00  0.00    +0.381 HD
ENDBRANCH  32  33
ENDBRANCH  31  32
ENDBRANCH  28  31
ENDBRANCH  25  28
ENDBRANCH  24  25
ENDBRANCH  23  24
ENDBRANCH  22  23
ENDBRANCH  20  21
ENDBRANCH  19  20
ENDBRANCH  18  19
TORSDOF 21
ENDMDL
MODEL 8
REMARK VINA RESULT:      -5.1      2.922      7.390
REMARK  Name = ZINC95486035
REMARK  27 active torsions:
REMARK  status: ('A' for Active; 'I' for Inactive)
REMARK    1  A    between atoms: C1_1  and  C2_2
REMARK    2  A    between atoms: C2_2  and  C16_20
REMARK    3  A    between atoms: C3_3  and  C4_4
REMARK    4  A    between atoms: C4_4  and  C5_5
REMARK    5  A    between atoms: C5_5  and  C6_6
REMARK    6  A    between atoms: C7_7  and  C8_8
REMARK    7  A    between atoms: C7_7  and  C9_9
REMARK    8  A    between atoms: C9_9  and  C10_10
REMARK    9  A    between atoms: C10_10  and  C11_11
REMARK   10  A    between atoms: C11_11  and  C12_13
REMARK   11  A    between atoms: C11_11  and  O3_19
REMARK   12  A    between atoms: C12_13  and  C13_14
REMARK   13  A    between atoms: C12_13  and  C14_15
REMARK   14  A    between atoms: C12_13  and  O2_18
REMARK   15  A    between atoms: C14_15  and  C15_16
REMARK   16  A    between atoms: C15_16  and  O1_17
REMARK   17  A    between atoms: C16_20  and  C17_21
REMARK   18  A    between atoms: C17_21  and  C18_22
REMARK   19  A    between atoms: C19_23  and  C20_24
REMARK   20  A    between atoms: C19_23  and  C21_25
REMARK   21  A    between atoms: C21_25  and  C22_26
REMARK   22  A    between atoms: C22_26  and  C23_27
REMARK   23  A    between atoms: C23_27  and  C24_29
REMARK   24  A    between atoms: C23_27  and  O5_33
REMARK   25  A    between atoms: C24_29  and  C25_30
REMARK   26  A    between atoms: C24_29  and  C26_31
REMARK   27  A    between atoms: C24_29  and  O4_32
REMARK                            x       y       z     vdW  Elec       q    Type
REMARK                         _______ _______ _______ _____ _____    ______ ____
ROOT
ATOM      1  C   UNL     1      45.440  19.471  18.303  0.00  0.00    +0.071 C 
ATOM      2  C   UNL     1      45.594  20.087  19.669  0.00  0.00    -0.127 C 
ATOM     18  C   UNL     1      44.785  19.739  20.639  0.00  0.00    -0.057 C 
ENDROOT
BRANCH   2   3
ATOM      3  C   UNL     1      46.678  21.103  19.921  0.00  0.00    +0.056 C 
BRANCH   3   4
ATOM      4  C   UNL     1      48.024  20.390  20.058  0.00  0.00    +0.054 C 
BRANCH   4   5
ATOM      5  C   UNL     1      48.888  20.711  18.865  0.00  0.00    -0.056 C 
ATOM      6  C   UNL     1      50.183  20.844  19.011  0.00  0.00    -0.126 C 
ATOM     17  C   UNL     1      50.810  20.668  20.371  0.00  0.00    +0.071 C 
BRANCH   6   7
ATOM      7  C   UNL     1      51.045  21.175  17.820  0.00  0.00    +0.059 C 
BRANCH   7   8
ATOM      8  C   UNL     1      52.130  20.108  17.663  0.00  0.00    +0.006 C 
BRANCH   8   9
ATOM      9  C   UNL     1      51.633  19.009  16.722  0.00  0.00    +0.182 C 
BRANCH   9  12
ATOM     12  C   UNL     1      51.638  17.667  17.456  0.00  0.00    +0.096 C 
ATOM     15  C   UNL     1      50.210  17.311  17.875  0.00  0.00    +0.057 C 
ATOM     16  C   UNL     1      52.524  17.767  18.698  0.00  0.00    +0.018 C 
BRANCH  12  13
ATOM     13  O   UNL     1      52.146  16.652  16.588  0.00  0.00    -0.554 OA
ATOM     14  H   UNL     1      51.603  16.497  15.804  0.00  0.00    +0.377 HD
ENDBRANCH  12  13
ENDBRANCH   9  12
BRANCH   9  10
ATOM     10  O   UNL     1      52.493  18.933  15.583  0.00  0.00    -0.553 OA
ATOM     11  H   UNL     1      52.749  18.032  15.343  0.00  0.00    +0.373 HD
ENDBRANCH   9  10
ENDBRANCH   8   9
ENDBRANCH   7   8
ENDBRANCH   6   7
ENDBRANCH   4   5
ENDBRANCH   3   4
ENDBRANCH   2   3
BRANCH  18  19
ATOM     19  C   UNL     1      43.784  18.634  20.425  0.00  0.00    +0.049 C 
BRANCH  19  20
ATOM     20  C   UNL     1      44.251  17.373  21.156  0.00  0.00    +0.053 C 
BRANCH  20  21
ATOM     21  C   UNL     1      45.048  16.511  20.212  0.00  0.00    -0.056 C 
ATOM     22  C   UNL     1      46.333  16.343  20.405  0.00  0.00    -0.126 C 
ATOM     36  C   UNL     1      47.026  17.060  21.534  0.00  0.00    +0.071 C 
BRANCH  22  23
ATOM     23  C   UNL     1      47.117  15.431  19.497  0.00  0.00    +0.060 C 
BRANCH  23  24
ATOM     24  C   UNL     1      46.296  15.128  18.244  0.00  0.00    +0.009 C 
BRANCH  24  25
ATOM     25  C   UNL     1      47.201  15.198  17.012  0.00  0.00    +0.189 C 
BRANCH  25  26
ATOM     26  O   UNL     1      46.669  16.144  16.083  0.00  0.00    -0.553 OA
ATOM     27  H   UNL     1      45.714  16.070  15.949  0.00  0.00    +0.371 HD
ENDBRANCH  25  26
BRANCH  25  28
ATOM     28  C   UNL     1      47.270  13.819  16.351  0.00  0.00    +0.105 C 
ATOM     35  C   UNL     1      46.196  12.912  16.953  0.00  0.00    +0.065 C 
BRANCH  28  29
ATOM     29  O   UNL     1      47.047  13.953  14.945  0.00  0.00    -0.552 OA
ATOM     30  H   UNL     1      46.232  13.537  14.635  0.00  0.00    +0.373 HD
ENDBRANCH  28  29
BRANCH  28  31
ATOM     31  C   UNL     1      48.650  13.206  16.593  0.00  0.00    +0.016 C 
BRANCH  31  32
ATOM     32  C   UNL     1      49.384  13.060  15.259  0.00  0.00    +0.175 C 
BRANCH  32  33
ATOM     33  O   UNL     1      48.971  11.852  14.616  0.00  0.00    -0.577 OA
ATOM     34  H   UNL     1      49.162  11.824  13.669  0.00  0.00    +0.381 HD
ENDBRANCH  32  33
ENDBRANCH  31  32
ENDBRANCH  28  31
ENDBRANCH  25  28
ENDBRANCH  24  25
ENDBRANCH  23  24
ENDBRANCH  22  23
ENDBRANCH  20  21
ENDBRANCH  19  20
ENDBRANCH  18  19
TORSDOF 21
ENDMDL
MODEL 9
REMARK VINA RESULT:      -5.0      2.699      7.572
REMARK  Name = ZINC95486035
REMARK  27 active torsions:
REMARK  status: ('A' for Active; 'I' for Inactive)
REMARK    1  A    between atoms: C1_1  and  C2_2
REMARK    2  A    between atoms: C2_2  and  C16_20
REMARK    3  A    between atoms: C3_3  and  C4_4
REMARK    4  A    between atoms: C4_4  and  C5_5
REMARK    5  A    between atoms: C5_5  and  C6_6
REMARK    6  A    between atoms: C7_7  and  C8_8
REMARK    7  A    between atoms: C7_7  and  C9_9
REMARK    8  A    between atoms: C9_9  and  C10_10
REMARK    9  A    between atoms: C10_10  and  C11_11
REMARK   10  A    between atoms: C11_11  and  C12_13
REMARK   11  A    between atoms: C11_11  and  O3_19
REMARK   12  A    between atoms: C12_13  and  C13_14
REMARK   13  A    between atoms: C12_13  and  C14_15
REMARK   14  A    between atoms: C12_13  and  O2_18
REMARK   15  A    between atoms: C14_15  and  C15_16
REMARK   16  A    between atoms: C15_16  and  O1_17
REMARK   17  A    between atoms: C16_20  and  C17_21
REMARK   18  A    between atoms: C17_21  and  C18_22
REMARK   19  A    between atoms: C19_23  and  C20_24
REMARK   20  A    between atoms: C19_23  and  C21_25
REMARK   21  A    between atoms: C21_25  and  C22_26
REMARK   22  A    between atoms: C22_26  and  C23_27
REMARK   23  A    between atoms: C23_27  and  C24_29
REMARK   24  A    between atoms: C23_27  and  O5_33
REMARK   25  A    between atoms: C24_29  and  C25_30
REMARK   26  A    between atoms: C24_29  and  C26_31
REMARK   27  A    between atoms: C24_29  and  O4_32
REMARK                            x       y       z     vdW  Elec       q    Type
REMARK                         _______ _______ _______ _____ _____    ______ ____
ROOT
ATOM      1  C   UNL     1      42.300  20.070  18.769  0.00  0.00    +0.071 C 
ATOM      2  C   UNL     1      43.152  20.571  19.906  0.00  0.00    -0.127 C 
ATOM     18  C   UNL     1      43.254  19.868  21.007  0.00  0.00    -0.057 C 
ENDROOT
BRANCH   2   3
ATOM      3  C   UNL     1      43.887  21.880  19.778  0.00  0.00    +0.056 C 
BRANCH   3   4
ATOM      4  C   UNL     1      45.251  21.768  20.461  0.00  0.00    +0.054 C 
BRANCH   4   5
ATOM      5  C   UNL     1      46.258  21.213  19.485  0.00  0.00    -0.056 C 
ATOM      6  C   UNL     1      47.502  21.037  19.857  0.00  0.00    -0.126 C 
ATOM     17  C   UNL     1      47.924  21.382  21.263  0.00  0.00    +0.071 C 
BRANCH   6   7
ATOM      7  C   UNL     1      48.509  20.490  18.880  0.00  0.00    +0.059 C 
BRANCH   7   8
ATOM      8  C   UNL     1      49.874  20.378  19.562  0.00  0.00    +0.006 C 
BRANCH   8   9
ATOM      9  C   UNL     1      50.725  19.336  18.835  0.00  0.00    +0.182 C 
BRANCH   9  12
ATOM     12  C   UNL     1      51.975  20.006  18.263  0.00  0.00    +0.096 C 
ATOM     15  C   UNL     1      52.544  20.985  19.292  0.00  0.00    +0.057 C 
ATOM     16  C   UNL     1      51.610  20.764  16.986  0.00  0.00    +0.018 C 
BRANCH  12  13
ATOM     13  O   UNL     1      52.954  19.009  17.962  0.00  0.00    -0.554 OA
ATOM     14  H   UNL     1      52.684  18.387  17.273  0.00  0.00    +0.377 HD
ENDBRANCH  12  13
ENDBRANCH   9  12
BRANCH   9  10
ATOM     10  O   UNL     1      49.964  18.759  17.771  0.00  0.00    -0.553 OA
ATOM     11  H   UNL     1      49.298  18.122  18.065  0.00  0.00    +0.373 HD
ENDBRANCH   9  10
ENDBRANCH   8   9
ENDBRANCH   7   8
ENDBRANCH   6   7
ENDBRANCH   4   5
ENDBRANCH   3   4
ENDBRANCH   2   3
BRANCH  18  19
ATOM     19  C   UNL     1      42.623  18.502  21.090  0.00  0.00    +0.049 C 
BRANCH  19  20
ATOM     20  C   UNL     1      43.680  17.476  21.504  0.00  0.00    +0.053 C 
BRANCH  20  21
ATOM     21  C   UNL     1      44.677  17.304  20.387  0.00  0.00    -0.056 C 
ATOM     22  C   UNL     1      45.945  17.561  20.594  0.00  0.00    -0.126 C 
ATOM     36  C   UNL     1      46.398  18.089  21.930  0.00  0.00    +0.071 C 
BRANCH  22  23
ATOM     23  C   UNL     1      46.949  17.330  19.495  0.00  0.00    +0.060 C 
BRANCH  23  24
ATOM     24  C   UNL     1      46.238  16.770  18.263  0.00  0.00    +0.009 C 
BRANCH  24  25
ATOM     25  C   UNL     1      47.265  16.495  17.162  0.00  0.00    +0.189 C 
BRANCH  25  26
ATOM     26  O   UNL     1      46.932  17.256  15.999  0.00  0.00    -0.553 OA
ATOM     27  H   UNL     1      45.990  17.250  15.782  0.00  0.00    +0.371 HD
ENDBRANCH  25  26
BRANCH  25  28
ATOM     28  C   UNL     1      47.254  15.004  16.815  0.00  0.00    +0.105 C 
ATOM     35  C   UNL     1      46.457  14.241  17.874  0.00  0.00    +0.065 C 
BRANCH  28  29
ATOM     29  O   UNL     1      46.648  14.817  15.535  0.00  0.00    -0.552 OA
ATOM     30  H   UNL     1      47.140  14.226  14.949  0.00  0.00    +0.373 HD
ENDBRANCH  28  29
BRANCH  28  31
ATOM     31  C   UNL     1      48.690  14.479  16.782  0.00  0.00    +0.016 C 
BRANCH  31  32
ATOM     32  C   UNL     1      49.535  15.236  17.808  0.00  0.00    +0.175 C 
BRANCH  32  33
ATOM     33  O   UNL     1      50.649  15.846  17.153  0.00  0.00    -0.577 OA
ATOM     34  H   UNL     1      50.547  15.926  16.195  0.00  0.00    +0.381 HD
ENDBRANCH  32  33
ENDBRANCH  31  32
ENDBRANCH  28  31
ENDBRANCH  25  28
ENDBRANCH  24  25
ENDBRANCH  23  24
ENDBRANCH  22  23
ENDBRANCH  20  21
ENDBRANCH  19  20
ENDBRANCH  18  19
TORSDOF 21
ENDMDL
