MODEL 1
REMARK VINA RESULT:      -6.1      0.000      0.000
REMARK  Name = ZINC95486056
REMARK  8 active torsions:
REMARK  status: ('A' for Active; 'I' for Inactive)
REMARK    1  A    between atoms: C4_4  and  C7_7
REMARK    2  A    between atoms: C8_8  and  C9_9
REMARK    3  A    between atoms: C9_9  and  C10_11
REMARK    4  A    between atoms: C11_12  and  O6_23
REMARK    5  A    between atoms: C12_13  and  C17_21
REMARK    6  A    between atoms: C13_14  and  O4_20
REMARK    7  A    between atoms: C14_15  and  C16_18
REMARK    8  A    between atoms: C15_16  and  O2_17
REMARK                            x       y       z     vdW  Elec       q    Type
REMARK                         _______ _______ _______ _____ _____    ______ ____
ROOT
ATOM      8  C   UNL     1      45.584  20.516  20.188  0.00  0.00    -0.242 A 
ATOM      9  C   UNL     1      45.364  19.288  20.828  0.00  0.00    +0.259 A 
ATOM     12  C   UNL     1      44.072  18.735  20.866  0.00  0.00    -0.274 A 
ATOM     15  C   UNL     1      43.001  19.415  20.264  0.00  0.00    +0.276 A 
ATOM     18  C   UNL     1      43.222  20.645  19.623  0.00  0.00    -0.276 A 
ATOM     21  C   UNL     1      44.514  21.198  19.592  0.00  0.00    +0.258 A 
ENDROOT
BRANCH   8   7
ATOM      7  C   UNL     1      46.937  21.094  20.149  0.00  0.00    +0.451 C 
ATOM     24  O   UNL     1      47.271  21.922  20.978  0.00  0.00    -0.440 OA
BRANCH   7   6
ATOM      5  C   UNL     1      49.208  20.685  19.366  0.00  0.00    +0.138 C 
ATOM      6  C   UNL     1      47.883  20.672  19.114  0.00  0.00    -0.106 C 
BRANCH   5   4
ATOM      1  C   UNL     1      51.947  19.464  16.365  0.00  0.00    +0.025 A 
ATOM      2  C   UNL     1      51.171  18.519  17.015  0.00  0.00    +0.005 A 
ATOM      3  C   UNL     1      50.280  18.908  17.992  0.00  0.00    +0.040 A 
ATOM      4  C   UNL     1      50.159  20.261  18.325  0.00  0.00    -0.088 A 
ATOM     25  C   UNL     1      50.945  21.209  17.663  0.00  0.00    +0.032 A 
ATOM     26  C   UNL     1      51.833  20.805  16.689  0.00  0.00    +0.004 A 
ENDBRANCH   5   4
ENDBRANCH   7   6
ENDBRANCH   8   7
BRANCH   9  10
ATOM     10  O   UNL     1      46.396  18.635  21.407  0.00  0.00    -0.482 OA
ATOM     11  H   UNL     1      47.215  18.659  20.893  0.00  0.00    +0.414 HD
ENDBRANCH   9  10
BRANCH  12  13
ATOM     13  C   UNL     1      43.844  17.454  21.534  0.00  0.00    +0.498 C 
ATOM     14  O   UNL     1      42.905  17.324  22.291  0.00  0.00    -0.437 OA
ENDBRANCH  12  13
BRANCH  15  16
ATOM     16  O   UNL     1      41.758  18.885  20.299  0.00  0.00    -0.455 OA
ATOM     17  H   UNL     1      41.531  18.471  21.144  0.00  0.00    +0.410 HD
ENDBRANCH  15  16
BRANCH  18  19
ATOM     19  C   UNL     1      42.108  21.354  18.995  0.00  0.00    +0.498 C 
ATOM     20  O   UNL     1      41.375  20.770  18.223  0.00  0.00    -0.437 OA
ENDBRANCH  18  19
BRANCH  21  22
ATOM     22  O   UNL     1      44.726  22.385  18.980  0.00  0.00    -0.481 OA
ATOM     23  H   UNL     1      45.382  22.942  19.419  0.00  0.00    +0.411 HD
ENDBRANCH  21  22
TORSDOF 8
ENDMDL
MODEL 2
REMARK VINA RESULT:      -6.1      0.024      2.801
REMARK  Name = ZINC95486056
REMARK  8 active torsions:
REMARK  status: ('A' for Active; 'I' for Inactive)
REMARK    1  A    between atoms: C4_4  and  C7_7
REMARK    2  A    between atoms: C8_8  and  C9_9
REMARK    3  A    between atoms: C9_9  and  C10_11
REMARK    4  A    between atoms: C11_12  and  O6_23
REMARK    5  A    between atoms: C12_13  and  C17_21
REMARK    6  A    between atoms: C13_14  and  O4_20
REMARK    7  A    between atoms: C14_15  and  C16_18
REMARK    8  A    between atoms: C15_16  and  O2_17
REMARK                            x       y       z     vdW  Elec       q    Type
REMARK                         _______ _______ _______ _____ _____    ______ ____
ROOT
ATOM      8  C   UNL     1      45.587  20.515  20.193  0.00  0.00    -0.242 A 
ATOM      9  C   UNL     1      44.521  21.200  19.593  0.00  0.00    +0.259 A 
ATOM     12  C   UNL     1      43.225  20.655  19.628  0.00  0.00    -0.274 A 
ATOM     15  C   UNL     1      43.000  19.424  20.265  0.00  0.00    +0.276 A 
ATOM     18  C   UNL     1      44.068  18.739  20.866  0.00  0.00    -0.276 A 
ATOM     21  C   UNL     1      45.363  19.283  20.823  0.00  0.00    +0.258 A 
ENDROOT
BRANCH   8   7
ATOM      7  C   UNL     1      46.943  21.086  20.155  0.00  0.00    +0.451 C 
ATOM     24  O   UNL     1      47.282  21.908  20.988  0.00  0.00    -0.440 OA
BRANCH   7   6
ATOM      5  C   UNL     1      49.212  20.693  19.358  0.00  0.00    +0.138 C 
ATOM      6  C   UNL     1      47.885  20.665  19.116  0.00  0.00    -0.106 C 
BRANCH   5   4
ATOM      1  C   UNL     1      51.939  19.474  16.346  0.00  0.00    +0.025 A 
ATOM      2  C   UNL     1      51.158  18.530  16.991  0.00  0.00    +0.005 A 
ATOM      3  C   UNL     1      50.270  18.918  17.971  0.00  0.00    +0.040 A 
ATOM      4  C   UNL     1      50.159  20.270  18.313  0.00  0.00    -0.088 A 
ATOM     25  C   UNL     1      50.950  21.217  17.656  0.00  0.00    +0.032 A 
ATOM     26  C   UNL     1      51.834  20.813  16.678  0.00  0.00    +0.004 A 
ENDBRANCH   5   4
ENDBRANCH   7   6
ENDBRANCH   8   7
BRANCH   9  10
ATOM     10  O   UNL     1      44.739  22.385  18.981  0.00  0.00    -0.482 OA
ATOM     11  H   UNL     1      45.571  22.426  18.488  0.00  0.00    +0.414 HD
ENDBRANCH   9  10
BRANCH  12  13
ATOM     13  C   UNL     1      42.114  21.371  19.002  0.00  0.00    +0.498 C 
ATOM     14  O   UNL     1      41.371  20.788  18.239  0.00  0.00    -0.437 OA
ENDBRANCH  12  13
BRANCH  15  16
ATOM     16  O   UNL     1      41.754  18.899  20.300  0.00  0.00    -0.455 OA
ATOM     17  H   UNL     1      41.083  19.451  19.874  0.00  0.00    +0.410 HD
ENDBRANCH  15  16
BRANCH  18  19
ATOM     19  C   UNL     1      43.835  17.457  21.529  0.00  0.00    +0.498 C 
ATOM     20  O   UNL     1      42.953  17.353  22.357  0.00  0.00    -0.437 OA
ENDBRANCH  18  19
BRANCH  21  22
ATOM     22  O   UNL     1      46.393  18.621  21.397  0.00  0.00    -0.481 OA
ATOM     23  H   UNL     1      46.637  18.954  22.270  0.00  0.00    +0.411 HD
ENDBRANCH  21  22
TORSDOF 8
ENDMDL
MODEL 3
REMARK VINA RESULT:      -6.1      3.467      4.984
REMARK  Name = ZINC95486056
REMARK  8 active torsions:
REMARK  status: ('A' for Active; 'I' for Inactive)
REMARK    1  A    between atoms: C4_4  and  C7_7
REMARK    2  A    between atoms: C8_8  and  C9_9
REMARK    3  A    between atoms: C9_9  and  C10_11
REMARK    4  A    between atoms: C11_12  and  O6_23
REMARK    5  A    between atoms: C12_13  and  C17_21
REMARK    6  A    between atoms: C13_14  and  O4_20
REMARK    7  A    between atoms: C14_15  and  C16_18
REMARK    8  A    between atoms: C15_16  and  O2_17
REMARK                            x       y       z     vdW  Elec       q    Type
REMARK                         _______ _______ _______ _____ _____    ______ ____
ROOT
ATOM      8  C   UNL     1      43.251  20.177  20.291  0.00  0.00    -0.242 A 
ATOM      9  C   UNL     1      42.020  20.250  19.623  0.00  0.00    +0.259 A 
ATOM     12  C   UNL     1      41.633  21.443  18.988  0.00  0.00    -0.274 A 
ATOM     15  C   UNL     1      42.479  22.563  19.024  0.00  0.00    +0.276 A 
ATOM     18  C   UNL     1      43.711  22.490  19.693  0.00  0.00    -0.276 A 
ATOM     21  C   UNL     1      44.093  21.297  20.332  0.00  0.00    +0.258 A 
ENDROOT
BRANCH   8   7
ATOM      7  C   UNL     1      43.655  18.928  20.956  0.00  0.00    +0.451 C 
ATOM     24  O   UNL     1      43.594  18.836  22.169  0.00  0.00    -0.440 OA
BRANCH   7   6
ATOM      5  C   UNL     1      45.324  17.862  19.536  0.00  0.00    +0.138 C 
ATOM      6  C   UNL     1      44.129  17.795  20.158  0.00  0.00    -0.106 C 
BRANCH   5   4
ATOM      1  C   UNL     1      46.695  14.583  17.221  0.00  0.00    +0.025 A 
ATOM      2  C   UNL     1      46.147  14.361  18.473  0.00  0.00    +0.005 A 
ATOM      3  C   UNL     1      45.700  15.422  19.231  0.00  0.00    +0.040 A 
ATOM      4  C   UNL     1      45.801  16.725  18.733  0.00  0.00    -0.088 A 
ATOM     25  C   UNL     1      46.354  16.940  17.467  0.00  0.00    +0.032 A 
ATOM     26  C   UNL     1      46.797  15.869  16.720  0.00  0.00    +0.004 A 
ENDBRANCH   5   4
ENDBRANCH   7   6
ENDBRANCH   8   7
BRANCH   9  10
ATOM     10  O   UNL     1      41.206  19.171  19.589  0.00  0.00    -0.482 OA
ATOM     11  H   UNL     1      41.094  18.791  18.706  0.00  0.00    +0.414 HD
ENDBRANCH   9  10
BRANCH  12  13
ATOM     13  C   UNL     1      40.349  21.517  18.291  0.00  0.00    +0.498 C 
ATOM     14  O   UNL     1      39.313  21.444  18.919  0.00  0.00    -0.437 OA
ENDBRANCH  12  13
BRANCH  15  16
ATOM     16  O   UNL     1      42.108  23.710  18.413  0.00  0.00    -0.455 OA
ATOM     17  H   UNL     1      41.266  23.650  17.941  0.00  0.00    +0.410 HD
ENDBRANCH  15  16
BRANCH  18  19
ATOM     19  C   UNL     1      44.594  23.654  19.731  0.00  0.00    +0.498 C 
ATOM     20  O   UNL     1      44.703  24.366  18.753  0.00  0.00    -0.437 OA
ENDBRANCH  18  19
BRANCH  21  22
ATOM     22  O   UNL     1      45.277  21.228  20.981  0.00  0.00    -0.481 OA
ATOM     23  H   UNL     1      45.735  20.384  20.876  0.00  0.00    +0.411 HD
ENDBRANCH  21  22
TORSDOF 8
ENDMDL
MODEL 4
REMARK VINA RESULT:      -6.0      3.840      5.354
REMARK  Name = ZINC95486056
REMARK  8 active torsions:
REMARK  status: ('A' for Active; 'I' for Inactive)
REMARK    1  A    between atoms: C4_4  and  C7_7
REMARK    2  A    between atoms: C8_8  and  C9_9
REMARK    3  A    between atoms: C9_9  and  C10_11
REMARK    4  A    between atoms: C11_12  and  O6_23
REMARK    5  A    between atoms: C12_13  and  C17_21
REMARK    6  A    between atoms: C13_14  and  O4_20
REMARK    7  A    between atoms: C14_15  and  C16_18
REMARK    8  A    between atoms: C15_16  and  O2_17
REMARK                            x       y       z     vdW  Elec       q    Type
REMARK                         _______ _______ _______ _____ _____    ______ ____
ROOT
ATOM      8  C   UNL     1      43.320  20.166  20.182  0.00  0.00    -0.242 A 
ATOM      9  C   UNL     1      44.148  21.296  20.246  0.00  0.00    +0.259 A 
ATOM     12  C   UNL     1      43.730  22.508  19.669  0.00  0.00    -0.274 A 
ATOM     15  C   UNL     1      42.483  22.586  19.028  0.00  0.00    +0.276 A 
ATOM     18  C   UNL     1      41.654  21.454  18.965  0.00  0.00    -0.276 A 
ATOM     21  C   UNL     1      42.078  20.242  19.538  0.00  0.00    +0.258 A 
ENDROOT
BRANCH   8   7
ATOM      7  C   UNL     1      43.759  18.897  20.786  0.00  0.00    +0.451 C 
ATOM     24  O   UNL     1      43.665  18.730  21.989  0.00  0.00    -0.440 OA
BRANCH   7   6
ATOM      5  C   UNL     1      44.842  16.732  20.502  0.00  0.00    +0.138 C 
ATOM      6  C   UNL     1      44.308  17.836  19.939  0.00  0.00    -0.106 C 
BRANCH   5   4
ATOM      1  C   UNL     1      46.431  13.658  18.049  0.00  0.00    +0.025 A 
ATOM      2  C   UNL     1      45.726  13.330  19.194  0.00  0.00    +0.005 A 
ATOM      3  C   UNL     1      45.207  14.323  19.997  0.00  0.00    +0.040 A 
ATOM      4  C   UNL     1      45.394  15.666  19.651  0.00  0.00    -0.088 A 
ATOM     25  C   UNL     1      46.107  15.989  18.492  0.00  0.00    +0.032 A 
ATOM     26  C   UNL     1      46.620  14.984  17.700  0.00  0.00    +0.004 A 
ENDBRANCH   5   4
ENDBRANCH   7   6
ENDBRANCH   8   7
BRANCH   9  10
ATOM     10  O   UNL     1      45.348  21.219  20.863  0.00  0.00    -0.482 OA
ATOM     11  H   UNL     1      45.418  21.768  21.657  0.00  0.00    +0.414 HD
ENDBRANCH   9  10
BRANCH  12  13
ATOM     13  C   UNL     1      44.595  23.686  19.736  0.00  0.00    +0.498 C 
ATOM     14  O   UNL     1      44.678  24.431  18.783  0.00  0.00    -0.437 OA
ENDBRANCH  12  13
BRANCH  15  16
ATOM     16  O   UNL     1      42.080  23.752  18.474  0.00  0.00    -0.455 OA
ATOM     17  H   UNL     1      42.155  24.514  19.064  0.00  0.00    +0.410 HD
ENDBRANCH  15  16
BRANCH  18  19
ATOM     19  C   UNL     1      40.355  21.534  18.299  0.00  0.00    +0.498 C 
ATOM     20  O   UNL     1      39.334  21.476  18.953  0.00  0.00    -0.437 OA
ENDBRANCH  18  19
BRANCH  21  22
ATOM     22  O   UNL     1      41.283  19.150  19.472  0.00  0.00    -0.481 OA
ATOM     23  H   UNL     1      41.073  18.871  18.571  0.00  0.00    +0.411 HD
ENDBRANCH  21  22
TORSDOF 8
ENDMDL
MODEL 5
REMARK VINA RESULT:      -6.0      1.589      2.879
REMARK  Name = ZINC95486056
REMARK  8 active torsions:
REMARK  status: ('A' for Active; 'I' for Inactive)
REMARK    1  A    between atoms: C4_4  and  C7_7
REMARK    2  A    between atoms: C8_8  and  C9_9
REMARK    3  A    between atoms: C9_9  and  C10_11
REMARK    4  A    between atoms: C11_12  and  O6_23
REMARK    5  A    between atoms: C12_13  and  C17_21
REMARK    6  A    between atoms: C13_14  and  O4_20
REMARK    7  A    between atoms: C14_15  and  C16_18
REMARK    8  A    between atoms: C15_16  and  O2_17
REMARK                            x       y       z     vdW  Elec       q    Type
REMARK                         _______ _______ _______ _____ _____    ______ ____
ROOT
ATOM      8  C   UNL     1      46.133  20.269  19.946  0.00  0.00    -0.242 A 
ATOM      9  C   UNL     1      44.895  19.930  19.381  0.00  0.00    +0.259 A 
ATOM     12  C   UNL     1      43.843  20.862  19.381  0.00  0.00    -0.274 A 
ATOM     15  C   UNL     1      44.032  22.133  19.948  0.00  0.00    +0.276 A 
ATOM     18  C   UNL     1      45.272  22.472  20.514  0.00  0.00    -0.276 A 
ATOM     21  C   UNL     1      46.320  21.535  20.518  0.00  0.00    +0.258 A 
ENDROOT
BRANCH   8   7
ATOM      7  C   UNL     1      47.234  19.292  19.947  0.00  0.00    +0.451 C 
ATOM     24  O   UNL     1      47.342  18.496  20.862  0.00  0.00    -0.440 OA
BRANCH   7   6
ATOM      5  C   UNL     1      49.423  19.817  19.012  0.00  0.00    +0.138 C 
ATOM      6  C   UNL     1      48.198  19.276  18.844  0.00  0.00    -0.106 C 
BRANCH   5   4
ATOM      1  C   UNL     1      52.213  19.776  15.818  0.00  0.00    +0.025 A 
ATOM      2  C   UNL     1      51.605  18.597  16.217  0.00  0.00    +0.005 A 
ATOM      3  C   UNL     1      50.698  18.603  17.254  0.00  0.00    +0.040 A 
ATOM      4  C   UNL     1      50.391  19.803  17.904  0.00  0.00    -0.088 A 
ATOM     25  C   UNL     1      51.009  20.989  17.495  0.00  0.00    +0.032 A 
ATOM     26  C   UNL     1      51.914  20.968  16.455  0.00  0.00    +0.004 A 
ENDBRANCH   5   4
ENDBRANCH   7   6
ENDBRANCH   8   7
BRANCH   9  10
ATOM     10  O   UNL     1      44.715  18.707  18.835  0.00  0.00    -0.482 OA
ATOM     11  H   UNL     1      44.014  18.189  19.255  0.00  0.00    +0.414 HD
ENDBRANCH   9  10
BRANCH  12  13
ATOM     13  C   UNL     1      42.552  20.508  18.791  0.00  0.00    +0.498 C 
ATOM     14  O   UNL     1      41.559  20.466  19.486  0.00  0.00    -0.437 OA
ENDBRANCH  12  13
BRANCH  15  16
ATOM     16  O   UNL     1      43.021  23.031  19.948  0.00  0.00    -0.455 OA
ATOM     17  H   UNL     1      42.206  22.705  19.542  0.00  0.00    +0.410 HD
ENDBRANCH  15  16
BRANCH  18  19
ATOM     19  C   UNL     1      45.471  23.794  21.105  0.00  0.00    +0.498 C 
ATOM     20  O   UNL     1      45.550  24.772  20.390  0.00  0.00    -0.437 OA
ENDBRANCH  18  19
BRANCH  21  22
ATOM     22  O   UNL     1      47.512  21.859  21.068  0.00  0.00    -0.481 OA
ATOM     23  H   UNL     1      47.775  21.286  21.801  0.00  0.00    +0.411 HD
ENDBRANCH  21  22
TORSDOF 8
ENDMDL
MODEL 6
REMARK VINA RESULT:      -6.0      1.538      3.192
REMARK  Name = ZINC95486056
REMARK  8 active torsions:
REMARK  status: ('A' for Active; 'I' for Inactive)
REMARK    1  A    between atoms: C4_4  and  C7_7
REMARK    2  A    between atoms: C8_8  and  C9_9
REMARK    3  A    between atoms: C9_9  and  C10_11
REMARK    4  A    between atoms: C11_12  and  O6_23
REMARK    5  A    between atoms: C12_13  and  C17_21
REMARK    6  A    between atoms: C13_14  and  O4_20
REMARK    7  A    between atoms: C14_15  and  C16_18
REMARK    8  A    between atoms: C15_16  and  O2_17
REMARK                            x       y       z     vdW  Elec       q    Type
REMARK                         _______ _______ _______ _____ _____    ______ ____
ROOT
ATOM      8  C   UNL     1      46.090  20.281  19.964  0.00  0.00    -0.242 A 
ATOM      9  C   UNL     1      46.296  21.562  20.496  0.00  0.00    +0.259 A 
ATOM     12  C   UNL     1      45.253  22.505  20.482  0.00  0.00    -0.274 A 
ATOM     15  C   UNL     1      44.006  22.163  19.933  0.00  0.00    +0.276 A 
ATOM     18  C   UNL     1      43.801  20.880  19.401  0.00  0.00    -0.276 A 
ATOM     21  C   UNL     1      44.848  19.941  19.411  0.00  0.00    +0.258 A 
ENDROOT
BRANCH   8   7
ATOM      7  C   UNL     1      47.183  19.294  19.979  0.00  0.00    +0.451 C 
ATOM     24  O   UNL     1      47.271  18.497  20.895  0.00  0.00    -0.440 OA
BRANCH   7   6
ATOM      5  C   UNL     1      49.345  19.902  19.033  0.00  0.00    +0.138 C 
ATOM      6  C   UNL     1      48.161  19.270  18.890  0.00  0.00    -0.106 C 
BRANCH   5   4
ATOM      1  C   UNL     1      52.182  19.838  15.880  0.00  0.00    +0.025 A 
ATOM      2  C   UNL     1      51.843  21.040  16.478  0.00  0.00    +0.005 A 
ATOM      3  C   UNL     1      50.921  21.069  17.502  0.00  0.00    +0.040 A 
ATOM      4  C   UNL     1      50.329  19.879  17.939  0.00  0.00    -0.088 A 
ATOM     25  C   UNL     1      50.677  18.670  17.331  0.00  0.00    +0.032 A 
ATOM     26  C   UNL     1      51.600  18.657  16.307  0.00  0.00    +0.004 A 
ENDBRANCH   5   4
ENDBRANCH   7   6
ENDBRANCH   8   7
BRANCH   9  10
ATOM     10  O   UNL     1      47.496  21.889  21.023  0.00  0.00    -0.482 OA
ATOM     11  H   UNL     1      47.439  22.363  21.865  0.00  0.00    +0.414 HD
ENDBRANCH   9  10
BRANCH  12  13
ATOM     13  C   UNL     1      45.468  23.841  21.037  0.00  0.00    +0.498 C 
ATOM     14  O   UNL     1      45.532  24.801  20.299  0.00  0.00    -0.437 OA
ENDBRANCH  12  13
BRANCH  15  16
ATOM     16  O   UNL     1      43.003  23.069  19.920  0.00  0.00    -0.455 OA
ATOM     17  H   UNL     1      42.646  23.274  20.795  0.00  0.00    +0.410 HD
ENDBRANCH  15  16
BRANCH  18  19
ATOM     19  C   UNL     1      42.504  20.523  18.830  0.00  0.00    +0.498 C 
ATOM     20  O   UNL     1      41.864  19.606  19.304  0.00  0.00    -0.437 OA
ENDBRANCH  18  19
BRANCH  21  22
ATOM     22  O   UNL     1      44.652  18.707  18.893  0.00  0.00    -0.481 OA
ATOM     23  H   UNL     1      45.186  18.521  18.110  0.00  0.00    +0.411 HD
ENDBRANCH  21  22
TORSDOF 8
ENDMDL
MODEL 7
REMARK VINA RESULT:      -5.4      5.313      7.007
REMARK  Name = ZINC95486056
REMARK  8 active torsions:
REMARK  status: ('A' for Active; 'I' for Inactive)
REMARK    1  A    between atoms: C4_4  and  C7_7
REMARK    2  A    between atoms: C8_8  and  C9_9
REMARK    3  A    between atoms: C9_9  and  C10_11
REMARK    4  A    between atoms: C11_12  and  O6_23
REMARK    5  A    between atoms: C12_13  and  C17_21
REMARK    6  A    between atoms: C13_14  and  O4_20
REMARK    7  A    between atoms: C14_15  and  C16_18
REMARK    8  A    between atoms: C15_16  and  O2_17
REMARK                            x       y       z     vdW  Elec       q    Type
REMARK                         _______ _______ _______ _____ _____    ______ ____
ROOT
ATOM      8  C   UNL     1      49.306  14.356  17.543  0.00  0.00    -0.242 A 
ATOM      9  C   UNL     1      48.121  14.446  18.286  0.00  0.00    +0.259 A 
ATOM     12  C   UNL     1      46.942  13.849  17.806  0.00  0.00    -0.274 A 
ATOM     15  C   UNL     1      46.952  13.163  16.580  0.00  0.00    +0.276 A 
ATOM     18  C   UNL     1      48.140  13.073  15.837  0.00  0.00    -0.276 A 
ATOM     21  C   UNL     1      49.316  13.676  16.317  0.00  0.00    +0.258 A 
ENDROOT
BRANCH   8   7
ATOM      7  C   UNL     1      50.540  14.981  18.047  0.00  0.00    +0.451 C 
ATOM     24  O   UNL     1      51.193  14.429  18.914  0.00  0.00    -0.440 OA
BRANCH   7   6
ATOM      5  C   UNL     1      50.393  17.410  17.912  0.00  0.00    +0.138 C 
ATOM      6  C   UNL     1      50.982  16.267  17.503  0.00  0.00    -0.106 C 
BRANCH   5   4
ATOM      1  C   UNL     1      51.672  21.135  16.338  0.00  0.00    +0.025 A 
ATOM      2  C   UNL     1      51.036  21.089  17.567  0.00  0.00    +0.005 A 
ATOM      3  C   UNL     1      50.617  19.882  18.085  0.00  0.00    +0.040 A 
ATOM      4  C   UNL     1      50.836  18.703  17.365  0.00  0.00    -0.088 A 
ATOM     25  C   UNL     1      51.480  18.758  16.125  0.00  0.00    +0.032 A 
ATOM     26  C   UNL     1      51.893  19.973  15.621  0.00  0.00    +0.004 A 
ENDBRANCH   5   4
ENDBRANCH   7   6
ENDBRANCH   8   7
BRANCH   9  10
ATOM     10  O   UNL     1      48.112  15.105  19.466  0.00  0.00    -0.482 OA
ATOM     11  H   UNL     1      48.304  14.545  20.231  0.00  0.00    +0.414 HD
ENDBRANCH   9  10
BRANCH  12  13
ATOM     13  C   UNL     1      45.706  13.943  18.582  0.00  0.00    +0.498 C 
ATOM     14  O   UNL     1      45.093  12.937  18.870  0.00  0.00    -0.437 OA
ENDBRANCH  12  13
BRANCH  15  16
ATOM     16  O   UNL     1      45.820  12.588  16.118  0.00  0.00    -0.455 OA
ATOM     17  H   UNL     1      45.927  12.133  15.271  0.00  0.00    +0.410 HD
ENDBRANCH  15  16
BRANCH  18  19
ATOM     19  C   UNL     1      48.153  12.360  14.561  0.00  0.00    +0.498 C 
ATOM     20  O   UNL     1      47.674  12.876  13.572  0.00  0.00    -0.437 OA
ENDBRANCH  18  19
BRANCH  21  22
ATOM     22  O   UNL     1      50.459  13.595  15.598  0.00  0.00    -0.481 OA
ATOM     23  H   UNL     1      50.387  13.045  14.807  0.00  0.00    +0.411 HD
ENDBRANCH  21  22
TORSDOF 8
ENDMDL
MODEL 8
REMARK VINA RESULT:      -5.4      6.116      8.346
REMARK  Name = ZINC95486056
REMARK  8 active torsions:
REMARK  status: ('A' for Active; 'I' for Inactive)
REMARK    1  A    between atoms: C4_4  and  C7_7
REMARK    2  A    between atoms: C8_8  and  C9_9
REMARK    3  A    between atoms: C9_9  and  C10_11
REMARK    4  A    between atoms: C11_12  and  O6_23
REMARK    5  A    between atoms: C12_13  and  C17_21
REMARK    6  A    between atoms: C13_14  and  O4_20
REMARK    7  A    between atoms: C14_15  and  C16_18
REMARK    8  A    between atoms: C15_16  and  O2_17
REMARK                            x       y       z     vdW  Elec       q    Type
REMARK                         _______ _______ _______ _____ _____    ______ ____
ROOT
ATOM      8  C   UNL     1      50.230  14.012  16.441  0.00  0.00    -0.242 A 
ATOM      9  C   UNL     1      50.592  13.630  15.141  0.00  0.00    +0.259 A 
ATOM     12  C   UNL     1      49.652  13.002  14.305  0.00  0.00    -0.274 A 
ATOM     15  C   UNL     1      48.350  12.757  14.774  0.00  0.00    +0.276 A 
ATOM     18  C   UNL     1      47.990  13.140  16.076  0.00  0.00    -0.276 A 
ATOM     21  C   UNL     1      48.934  13.762  16.911  0.00  0.00    +0.258 A 
ENDROOT
BRANCH   8   7
ATOM      7  C   UNL     1      51.216  14.669  17.316  0.00  0.00    +0.451 C 
ATOM     24  O   UNL     1      51.750  14.041  18.211  0.00  0.00    -0.440 OA
BRANCH   7   6
ATOM      5  C   UNL     1      50.628  17.034  17.333  0.00  0.00    +0.138 C 
ATOM      6  C   UNL     1      51.553  16.079  17.107  0.00  0.00    -0.106 C 
BRANCH   5   4
ATOM      1  C   UNL     1      51.601  21.118  16.724  0.00  0.00    +0.025 A 
ATOM      2  C   UNL     1      52.051  20.162  15.829  0.00  0.00    +0.005 A 
ATOM      3  C   UNL     1      51.739  18.832  16.020  0.00  0.00    +0.040 A 
ATOM      4  C   UNL     1      50.966  18.451  17.122  0.00  0.00    -0.088 A 
ATOM     25  C   UNL     1      50.515  19.423  18.021  0.00  0.00    +0.032 A 
ATOM     26  C   UNL     1      50.836  20.748  17.816  0.00  0.00    +0.004 A 
ENDBRANCH   5   4
ENDBRANCH   7   6
ENDBRANCH   8   7
BRANCH   9  10
ATOM     10  O   UNL     1      51.844  13.868  14.692  0.00  0.00    -0.482 OA
ATOM     11  H   UNL     1      52.458  13.133  14.832  0.00  0.00    +0.414 HD
ENDBRANCH   9  10
BRANCH  12  13
ATOM     13  C   UNL     1      50.029  12.605  12.949  0.00  0.00    +0.498 C 
ATOM     14  O   UNL     1      49.655  13.260  11.999  0.00  0.00    -0.437 OA
ENDBRANCH  12  13
BRANCH  15  16
ATOM     16  O   UNL     1      47.446  12.154  13.971  0.00  0.00    -0.455 OA
ATOM     17  H   UNL     1      47.168  12.692  13.217  0.00  0.00    +0.410 HD
ENDBRANCH  15  16
BRANCH  18  19
ATOM     19  C   UNL     1      46.636  12.885  16.565  0.00  0.00    +0.498 C 
ATOM     20  O   UNL     1      46.214  11.748  16.620  0.00  0.00    -0.437 OA
ENDBRANCH  18  19
BRANCH  21  22
ATOM     22  O   UNL     1      48.588  14.125  18.167  0.00  0.00    -0.481 OA
ATOM     23  H   UNL     1      49.341  14.297  18.748  0.00  0.00    +0.411 HD
ENDBRANCH  21  22
TORSDOF 8
ENDMDL
MODEL 9
REMARK VINA RESULT:      -5.4      3.641      7.743
REMARK  Name = ZINC95486056
REMARK  8 active torsions:
REMARK  status: ('A' for Active; 'I' for Inactive)
REMARK    1  A    between atoms: C4_4  and  C7_7
REMARK    2  A    between atoms: C8_8  and  C9_9
REMARK    3  A    between atoms: C9_9  and  C10_11
REMARK    4  A    between atoms: C11_12  and  O6_23
REMARK    5  A    between atoms: C12_13  and  C17_21
REMARK    6  A    between atoms: C13_14  and  O4_20
REMARK    7  A    between atoms: C14_15  and  C16_18
REMARK    8  A    between atoms: C15_16  and  O2_17
REMARK                            x       y       z     vdW  Elec       q    Type
REMARK                         _______ _______ _______ _____ _____    ______ ____
ROOT
ATOM      8  C   UNL     1      50.084  19.005  18.881  0.00  0.00    -0.242 A 
ATOM      9  C   UNL     1      50.717  19.981  18.099  0.00  0.00    +0.259 A 
ATOM     12  C   UNL     1      51.442  19.605  16.955  0.00  0.00    -0.274 A 
ATOM     15  C   UNL     1      51.532  18.250  16.596  0.00  0.00    +0.276 A 
ATOM     18  C   UNL     1      50.898  17.273  17.380  0.00  0.00    -0.276 A 
ATOM     21  C   UNL     1      50.178  17.652  18.527  0.00  0.00    +0.258 A 
ENDROOT
BRANCH   8   7
ATOM      7  C   UNL     1      49.326  19.400  20.080  0.00  0.00    +0.451 C 
ATOM     24  O   UNL     1      49.908  19.598  21.131  0.00  0.00    -0.440 OA
BRANCH   7   6
ATOM      5  C   UNL     1      47.340  20.657  19.435  0.00  0.00    +0.138 C 
ATOM      6  C   UNL     1      47.871  19.556  20.006  0.00  0.00    -0.106 C 
BRANCH   5   4
ATOM      1  C   UNL     1      43.128  21.113  19.222  0.00  0.00    +0.025 A 
ATOM      2  C   UNL     1      43.902  22.116  19.782  0.00  0.00    +0.005 A 
ATOM      3  C   UNL     1      45.271  21.974  19.855  0.00  0.00    +0.040 A 
ATOM      4  C   UNL     1      45.878  20.814  19.362  0.00  0.00    -0.088 A 
ATOM     25  C   UNL     1      45.089  19.807  18.798  0.00  0.00    +0.032 A 
ATOM     26  C   UNL     1      43.721  19.963  18.731  0.00  0.00    +0.004 A 
ENDBRANCH   5   4
ENDBRANCH   7   6
ENDBRANCH   8   7
BRANCH   9  10
ATOM     10  O   UNL     1      50.629  21.284  18.445  0.00  0.00    -0.482 OA
ATOM     11  H   UNL     1      51.457  21.775  18.343  0.00  0.00    +0.414 HD
ENDBRANCH   9  10
BRANCH  12  13
ATOM     13  C   UNL     1      52.102  20.624  16.139  0.00  0.00    +0.498 C 
ATOM     14  O   UNL     1      51.508  21.638  15.838  0.00  0.00    -0.437 OA
ENDBRANCH  12  13
BRANCH  15  16
ATOM     16  O   UNL     1      52.228  17.887  15.495  0.00  0.00    -0.455 OA
ATOM     17  H   UNL     1      53.153  18.169  15.504  0.00  0.00    +0.410 HD
ENDBRANCH  15  16
BRANCH  18  19
ATOM     19  C   UNL     1      50.990  15.862  17.008  0.00  0.00    +0.498 C 
ATOM     20  O   UNL     1      49.979  15.203  16.870  0.00  0.00    -0.437 OA
ENDBRANCH  18  19
BRANCH  21  22
ATOM     22  O   UNL     1      49.572  16.710  19.286  0.00  0.00    -0.481 OA
ATOM     23  H   UNL     1      48.837  16.264  18.845  0.00  0.00    +0.411 HD
ENDBRANCH  21  22
TORSDOF 8
ENDMDL
