MODEL 1
REMARK VINA RESULT:      -6.4      0.000      0.000
REMARK  Name = ZINC95486186
REMARK  13 active torsions:
REMARK  status: ('A' for Active; 'I' for Inactive)
REMARK    1  A    between atoms: C1_1  and  C2_2
REMARK    2  A    between atoms: C3_3  and  C4_4
REMARK    3  A    between atoms: C4_4  and  C5_5
REMARK    4  A    between atoms: C5_5  and  C23_29
REMARK    5  A    between atoms: C7_8  and  O6_28
REMARK    6  A    between atoms: C15_18  and  O5_27
REMARK    7  A    between atoms: C16_19  and  C18_22
REMARK    8  A    between atoms: C17_20  and  O4_21
REMARK    9  A    between atoms: C18_22  and  C19_23
REMARK   10  A    between atoms: C20_24  and  C21_25
REMARK   11  A    between atoms: C20_24  and  C22_26
REMARK   12  A    between atoms: C23_29  and  C24_30
REMARK   13  A    between atoms: C25_31  and  C26_32
REMARK                            x       y       z     vdW  Elec       q    Type
REMARK                         _______ _______ _______ _____ _____    ______ ____
ROOT
ATOM      5  C   UNL     1      50.705  20.187  19.744  0.00  0.00    -0.001 C 
ATOM     10  C   UNL     1      51.950  20.792  20.353  0.00  0.00    +0.405 C 
ATOM     11  C   UNL     1      51.980  20.957  21.819  0.00  0.00    +0.115 C 
ATOM     14  C   UNL     1      50.802  21.173  22.460  0.00  0.00    -0.067 C 
ATOM     15  C   UNL     1      49.544  21.221  21.707  0.00  0.00    +0.220 A 
ATOM     16  O   UNL     1      48.441  21.676  22.338  0.00  0.00    -0.218 OA
ATOM     17  C   UNL     1      47.258  21.844  21.716  0.00  0.00    +0.177 A 
ATOM     18  C   UNL     1      46.173  22.388  22.385  0.00  0.00    -0.027 A 
ATOM     19  C   UNL     1      44.962  22.549  21.728  0.00  0.00    +0.192 A 
ATOM     22  C   UNL     1      44.819  22.168  20.399  0.00  0.00    -0.160 A 
ATOM     28  C   UNL     1      45.890  21.623  19.714  0.00  0.00    +0.224 A 
ATOM     31  C   UNL     1      47.116  21.461  20.369  0.00  0.00    -0.260 A 
ATOM     32  C   UNL     1      48.284  20.888  19.682  0.00  0.00    +0.436 A 
ATOM     33  O   UNL     1      48.215  20.516  18.522  0.00  0.00    -0.437 OA
ATOM     34  O   UNL     1      52.889  21.127  19.662  0.00  0.00    -0.387 OA
ATOM     35  C   UNL     1      49.493  20.783  20.416  0.00  0.00    -0.280 A 
ENDROOT
BRANCH  11  12
ATOM     12  O   UNL     1      53.148  20.895  22.505  0.00  0.00    -0.436 OA
ATOM     13  H   UNL     1      53.085  21.209  23.418  0.00  0.00    +0.408 HD
ENDBRANCH  11  12
BRANCH  19  20
ATOM     20  O   UNL     1      43.904  23.084  22.392  0.00  0.00    -0.484 OA
ATOM     21  H   UNL     1      44.040  23.997  22.677  0.00  0.00    +0.402 HD
ENDBRANCH  19  20
BRANCH  28  29
ATOM     29  O   UNL     1      45.753  21.250  18.417  0.00  0.00    -0.465 OA
ATOM     30  H   UNL     1      45.027  21.692  17.955  0.00  0.00    +0.399 HD
ENDBRANCH  28  29
BRANCH   5   4
ATOM      4  C   UNL     1      50.715  18.672  19.954  0.00  0.00    +0.100 C 
BRANCH   4   3
ATOM      1  C   UNL     1      47.495  16.758  20.797  0.00  0.00    +0.067 C 
ATOM      2  C   UNL     1      48.791  17.184  20.155  0.00  0.00    -0.041 C 
ATOM      3  C   UNL     1      49.421  18.245  20.595  0.00  0.00    -0.058 C 
ENDBRANCH   4   3
ENDBRANCH   5   4
BRANCH   5   6
ATOM      6  C   UNL     1      50.663  20.497  18.246  0.00  0.00    +0.117 C 
BRANCH   6   7
ATOM      7  C   UNL     1      51.072  19.273  17.469  0.00  0.00    -0.057 C 
ATOM      8  C   UNL     1      51.723  19.403  16.339  0.00  0.00    -0.046 C 
ATOM      9  C   UNL     1      52.133  18.179  15.561  0.00  0.00    +0.058 C 
ENDBRANCH   6   7
ENDBRANCH   5   6
BRANCH  22  23
ATOM     23  C   UNL     1      43.494  22.348  19.703  0.00  0.00    +0.132 C 
BRANCH  23  24
ATOM     24  C   UNL     1      42.805  21.012  19.585  0.00  0.00    -0.065 C 
ATOM     25  C   UNL     1      41.629  20.931  19.012  0.00  0.00    -0.114 C 
ATOM     26  C   UNL     1      40.940  19.595  18.894  0.00  0.00    +0.073 C 
ATOM     27  C   UNL     1      40.967  22.171  18.472  0.00  0.00    +0.077 C 
ENDBRANCH  23  24
ENDBRANCH  22  23
TORSDOF 9
ENDMDL
MODEL 2
REMARK VINA RESULT:      -6.0      3.890      5.659
REMARK  Name = ZINC95486186
REMARK  13 active torsions:
REMARK  status: ('A' for Active; 'I' for Inactive)
REMARK    1  A    between atoms: C1_1  and  C2_2
REMARK    2  A    between atoms: C3_3  and  C4_4
REMARK    3  A    between atoms: C4_4  and  C5_5
REMARK    4  A    between atoms: C5_5  and  C23_29
REMARK    5  A    between atoms: C7_8  and  O6_28
REMARK    6  A    between atoms: C15_18  and  O5_27
REMARK    7  A    between atoms: C16_19  and  C18_22
REMARK    8  A    between atoms: C17_20  and  O4_21
REMARK    9  A    between atoms: C18_22  and  C19_23
REMARK   10  A    between atoms: C20_24  and  C21_25
REMARK   11  A    between atoms: C20_24  and  C22_26
REMARK   12  A    between atoms: C23_29  and  C24_30
REMARK   13  A    between atoms: C25_31  and  C26_32
REMARK                            x       y       z     vdW  Elec       q    Type
REMARK                         _______ _______ _______ _____ _____    ______ ____
ROOT
ATOM      5  C   UNL     1      47.353  14.799  18.215  0.00  0.00    -0.001 C 
ATOM     10  C   UNL     1      48.325  13.992  19.047  0.00  0.00    +0.405 C 
ATOM     11  C   UNL     1      47.784  13.266  20.212  0.00  0.00    +0.115 C 
ATOM     14  C   UNL     1      46.704  13.792  20.846  0.00  0.00    -0.067 C 
ATOM     15  C   UNL     1      46.093  15.036  20.367  0.00  0.00    +0.220 A 
ATOM     16  O   UNL     1      45.189  15.649  21.159  0.00  0.00    -0.218 OA
ATOM     17  C   UNL     1      44.635  16.839  20.855  0.00  0.00    +0.177 A 
ATOM     18  C   UNL     1      43.770  17.467  21.736  0.00  0.00    -0.027 A 
ATOM     19  C   UNL     1      43.206  18.690  21.403  0.00  0.00    +0.192 A 
ATOM     22  C   UNL     1      43.498  19.299  20.187  0.00  0.00    -0.160 A 
ATOM     28  C   UNL     1      44.360  18.688  19.294  0.00  0.00    +0.224 A 
ATOM     31  C   UNL     1      44.935  17.455  19.626  0.00  0.00    -0.260 A 
ATOM     32  C   UNL     1      45.859  16.768  18.709  0.00  0.00    +0.436 A 
ATOM     33  O   UNL     1      46.138  17.243  17.620  0.00  0.00    -0.437 OA
ATOM     34  O   UNL     1      49.504  13.944  18.767  0.00  0.00    -0.387 OA
ATOM     35  C   UNL     1      46.412  15.535  19.137  0.00  0.00    -0.280 A 
ENDROOT
BRANCH  11  12
ATOM     12  O   UNL     1      48.348  12.108  20.636  0.00  0.00    -0.436 OA
ATOM     13  H   UNL     1      48.879  12.200  21.439  0.00  0.00    +0.408 HD
ENDBRANCH  11  12
BRANCH  19  20
ATOM     20  O   UNL     1      42.359  19.298  22.273  0.00  0.00    -0.484 OA
ATOM     21  H   UNL     1      42.263  18.837  23.116  0.00  0.00    +0.402 HD
ENDBRANCH  19  20
BRANCH  28  29
ATOM     29  O   UNL     1      44.646  19.280  18.108  0.00  0.00    -0.465 OA
ATOM     30  H   UNL     1      44.177  18.896  17.353  0.00  0.00    +0.399 HD
ENDBRANCH  28  29
BRANCH   5   4
ATOM      4  C   UNL     1      46.553  13.861  17.309  0.00  0.00    +0.100 C 
BRANCH   4   3
ATOM      1  C   UNL     1      48.287  12.455  14.185  0.00  0.00    +0.067 C 
ATOM      2  C   UNL     1      47.599  12.569  15.521  0.00  0.00    -0.041 C 
ATOM      3  C   UNL     1      47.240  13.745  15.974  0.00  0.00    -0.058 C 
ENDBRANCH   4   3
ENDBRANCH   5   4
BRANCH   5   6
ATOM      6  C   UNL     1      48.122  15.807  17.358  0.00  0.00    +0.117 C 
BRANCH   6   7
ATOM      7  C   UNL     1      49.153  16.503  18.208  0.00  0.00    -0.057 C 
ATOM      8  C   UNL     1      49.623  17.670  17.841  0.00  0.00    -0.046 C 
ATOM      9  C   UNL     1      50.655  18.368  18.690  0.00  0.00    +0.058 C 
ENDBRANCH   6   7
ENDBRANCH   5   6
BRANCH  22  23
ATOM     23  C   UNL     1      42.874  20.626  19.842  0.00  0.00    +0.132 C 
BRANCH  23  24
ATOM     24  C   UNL     1      41.472  20.403  19.336  0.00  0.00    -0.065 C 
ATOM     25  C   UNL     1      40.835  21.372  18.725  0.00  0.00    -0.114 C 
ATOM     26  C   UNL     1      39.432  21.150  18.219  0.00  0.00    +0.073 C 
ATOM     27  C   UNL     1      41.503  22.708  18.530  0.00  0.00    +0.077 C 
ENDBRANCH  23  24
ENDBRANCH  22  23
TORSDOF 9
ENDMDL
MODEL 3
REMARK VINA RESULT:      -6.0      2.114      2.713
REMARK  Name = ZINC95486186
REMARK  13 active torsions:
REMARK  status: ('A' for Active; 'I' for Inactive)
REMARK    1  A    between atoms: C1_1  and  C2_2
REMARK    2  A    between atoms: C3_3  and  C4_4
REMARK    3  A    between atoms: C4_4  and  C5_5
REMARK    4  A    between atoms: C5_5  and  C23_29
REMARK    5  A    between atoms: C7_8  and  O6_28
REMARK    6  A    between atoms: C15_18  and  O5_27
REMARK    7  A    between atoms: C16_19  and  C18_22
REMARK    8  A    between atoms: C17_20  and  O4_21
REMARK    9  A    between atoms: C18_22  and  C19_23
REMARK   10  A    between atoms: C20_24  and  C21_25
REMARK   11  A    between atoms: C20_24  and  C22_26
REMARK   12  A    between atoms: C23_29  and  C24_30
REMARK   13  A    between atoms: C25_31  and  C26_32
REMARK                            x       y       z     vdW  Elec       q    Type
REMARK                         _______ _______ _______ _____ _____    ______ ____
ROOT
ATOM      5  C   UNL     1      50.621  18.557  18.248  0.00  0.00    -0.001 C 
ATOM     10  C   UNL     1      51.634  19.574  17.769  0.00  0.00    +0.405 C 
ATOM     11  C   UNL     1      51.910  20.725  18.650  0.00  0.00    +0.115 C 
ATOM     14  C   UNL     1      50.908  21.170  19.452  0.00  0.00    -0.067 C 
ATOM     15  C   UNL     1      49.601  20.505  19.446  0.00  0.00    +0.220 A 
ATOM     16  O   UNL     1      48.571  21.119  20.065  0.00  0.00    -0.218 OA
ATOM     17  C   UNL     1      47.312  20.640  20.043  0.00  0.00    +0.177 A 
ATOM     18  C   UNL     1      46.272  21.346  20.627  0.00  0.00    -0.027 A 
ATOM     19  C   UNL     1      44.983  20.834  20.598  0.00  0.00    +0.192 A 
ATOM     22  C   UNL     1      44.718  19.613  19.988  0.00  0.00    -0.160 A 
ATOM     28  C   UNL     1      45.742  18.894  19.399  0.00  0.00    +0.224 A 
ATOM     31  C   UNL     1      47.045  19.407  19.422  0.00  0.00    -0.260 A 
ATOM     32  C   UNL     1      48.166  18.679  18.808  0.00  0.00    +0.436 A 
ATOM     33  O   UNL     1      48.000  17.594  18.275  0.00  0.00    -0.437 OA
ATOM     34  O   UNL     1      52.197  19.447  16.703  0.00  0.00    -0.387 OA
ATOM     35  C   UNL     1      49.448  19.284  18.857  0.00  0.00    -0.280 A 
ENDROOT
BRANCH  11  12
ATOM     12  O   UNL     1      53.129  21.321  18.658  0.00  0.00    -0.436 OA
ATOM     13  H   UNL     1      53.542  21.383  17.786  0.00  0.00    +0.408 HD
ENDBRANCH  11  12
BRANCH  19  20
ATOM     20  O   UNL     1      43.970  21.533  21.172  0.00  0.00    -0.484 OA
ATOM     21  H   UNL     1      43.168  21.577  20.635  0.00  0.00    +0.402 HD
ENDBRANCH  19  20
BRANCH  28  29
ATOM     29  O   UNL     1      45.486  17.702  18.804  0.00  0.00    -0.465 OA
ATOM     30  H   UNL     1      44.662  17.684  18.297  0.00  0.00    +0.399 HD
ENDBRANCH  28  29
BRANCH   5   4
ATOM      4  C   UNL     1      51.264  17.649  19.299  0.00  0.00    +0.100 C 
BRANCH   4   3
ATOM      1  C   UNL     1      49.221  16.484  22.334  0.00  0.00    +0.067 C 
ATOM      2  C   UNL     1      50.075  16.496  21.092  0.00  0.00    -0.041 C 
ATOM      3  C   UNL     1      50.411  17.636  20.540  0.00  0.00    -0.058 C 
ENDBRANCH   4   3
ENDBRANCH   5   4
BRANCH   5   6
ATOM      6  C   UNL     1      50.142  17.713  17.065  0.00  0.00    +0.117 C 
BRANCH   6   7
ATOM      7  C   UNL     1      50.902  16.413  17.036  0.00  0.00    -0.057 C 
ATOM      8  C   UNL     1      50.252  15.276  16.990  0.00  0.00    -0.046 C 
ATOM      9  C   UNL     1      51.011  13.974  16.961  0.00  0.00    +0.058 C 
ENDBRANCH   6   7
ENDBRANCH   5   6
BRANCH  22  23
ATOM     23  C   UNL     1      43.311  19.072  19.969  0.00  0.00    +0.132 C 
BRANCH  23  24
ATOM     24  C   UNL     1      42.456  19.931  19.072  0.00  0.00    -0.065 C 
ATOM     25  C   UNL     1      41.205  20.162  19.385  0.00  0.00    -0.114 C 
ATOM     26  C   UNL     1      40.350  21.020  18.488  0.00  0.00    +0.073 C 
ATOM     27  C   UNL     1      40.621  19.569  20.641  0.00  0.00    +0.077 C 
ENDBRANCH  23  24
ENDBRANCH  22  23
TORSDOF 9
ENDMDL
MODEL 4
REMARK VINA RESULT:      -5.8      2.804      3.886
REMARK  Name = ZINC95486186
REMARK  13 active torsions:
REMARK  status: ('A' for Active; 'I' for Inactive)
REMARK    1  A    between atoms: C1_1  and  C2_2
REMARK    2  A    between atoms: C3_3  and  C4_4
REMARK    3  A    between atoms: C4_4  and  C5_5
REMARK    4  A    between atoms: C5_5  and  C23_29
REMARK    5  A    between atoms: C7_8  and  O6_28
REMARK    6  A    between atoms: C15_18  and  O5_27
REMARK    7  A    between atoms: C16_19  and  C18_22
REMARK    8  A    between atoms: C17_20  and  O4_21
REMARK    9  A    between atoms: C18_22  and  C19_23
REMARK   10  A    between atoms: C20_24  and  C21_25
REMARK   11  A    between atoms: C20_24  and  C22_26
REMARK   12  A    between atoms: C23_29  and  C24_30
REMARK   13  A    between atoms: C25_31  and  C26_32
REMARK                            x       y       z     vdW  Elec       q    Type
REMARK                         _______ _______ _______ _____ _____    ______ ____
ROOT
ATOM      5  C   UNL     1      49.616  17.857  19.023  0.00  0.00    -0.001 C 
ATOM     10  C   UNL     1      50.746  17.217  19.799  0.00  0.00    +0.405 C 
ATOM     11  C   UNL     1      50.528  15.852  20.315  0.00  0.00    +0.115 C 
ATOM     14  C   UNL     1      49.261  15.487  20.640  0.00  0.00    -0.067 C 
ATOM     15  C   UNL     1      48.148  16.426  20.461  0.00  0.00    +0.220 A 
ATOM     16  O   UNL     1      46.958  16.118  21.019  0.00  0.00    -0.218 OA
ATOM     17  C   UNL     1      45.899  16.950  20.991  0.00  0.00    +0.177 A 
ATOM     18  C   UNL     1      44.721  16.624  21.644  0.00  0.00    -0.027 A 
ATOM     19  C   UNL     1      43.639  17.491  21.600  0.00  0.00    +0.192 A 
ATOM     22  C   UNL     1      43.720  18.691  20.903  0.00  0.00    -0.160 A 
ATOM     28  C   UNL     1      44.887  19.035  20.245  0.00  0.00    +0.224 A 
ATOM     31  C   UNL     1      45.984  18.166  20.288  0.00  0.00    -0.260 A 
ATOM     32  C   UNL     1      47.246  18.489  19.605  0.00  0.00    +0.436 A 
ATOM     33  O   UNL     1      47.371  19.518  18.962  0.00  0.00    -0.437 OA
ATOM     34  O   UNL     1      51.791  17.803  19.988  0.00  0.00    -0.387 OA
ATOM     35  C   UNL     1      48.313  17.561  19.722  0.00  0.00    -0.280 A 
ENDROOT
BRANCH  11  12
ATOM     12  O   UNL     1      51.563  14.987  20.461  0.00  0.00    -0.436 OA
ATOM     13  H   UNL     1      52.418  15.348  20.189  0.00  0.00    +0.408 HD
ENDBRANCH  11  12
BRANCH  19  20
ATOM     20  O   UNL     1      42.489  17.163  22.243  0.00  0.00    -0.484 OA
ATOM     21  H   UNL     1      41.771  17.797  22.113  0.00  0.00    +0.402 HD
ENDBRANCH  19  20
BRANCH  28  29
ATOM     29  O   UNL     1      44.968  20.205  19.564  0.00  0.00    -0.465 OA
ATOM     30  H   UNL     1      45.872  20.477  19.354  0.00  0.00    +0.399 HD
ENDBRANCH  28  29
BRANCH   5   4
ATOM      4  C   UNL     1      49.579  17.284  17.605  0.00  0.00    +0.100 C 
BRANCH   4   3
ATOM      1  C   UNL     1      46.966  14.606  16.742  0.00  0.00    +0.067 C 
ATOM      2  C   UNL     1      48.272  15.326  16.958  0.00  0.00    -0.041 C 
ATOM      3  C   UNL     1      48.274  16.564  17.388  0.00  0.00    -0.058 C 
ENDBRANCH   4   3
ENDBRANCH   5   4
BRANCH   5   6
ATOM      6  C   UNL     1      49.831  19.371  18.959  0.00  0.00    +0.117 C 
BRANCH   6   7
ATOM      7  C   UNL     1      50.477  19.731  17.646  0.00  0.00    -0.057 C 
ATOM      8  C   UNL     1      51.123  20.864  17.525  0.00  0.00    -0.046 C 
ATOM      9  C   UNL     1      51.770  21.226  16.212  0.00  0.00    +0.058 C 
ENDBRANCH   6   7
ENDBRANCH   5   6
BRANCH  22  23
ATOM     23  C   UNL     1      42.533  19.619  20.864  0.00  0.00    +0.132 C 
BRANCH  23  24
ATOM     24  C   UNL     1      41.609  19.204  19.748  0.00  0.00    -0.065 C 
ATOM     25  C   UNL     1      41.193  20.092  18.878  0.00  0.00    -0.114 C 
ATOM     26  C   UNL     1      40.269  19.678  17.762  0.00  0.00    +0.073 C 
ATOM     27  C   UNL     1      41.636  21.527  18.996  0.00  0.00    +0.077 C 
ENDBRANCH  23  24
ENDBRANCH  22  23
TORSDOF 9
ENDMDL
MODEL 5
REMARK VINA RESULT:      -5.3      4.124      8.026
REMARK  Name = ZINC95486186
REMARK  13 active torsions:
REMARK  status: ('A' for Active; 'I' for Inactive)
REMARK    1  A    between atoms: C1_1  and  C2_2
REMARK    2  A    between atoms: C3_3  and  C4_4
REMARK    3  A    between atoms: C4_4  and  C5_5
REMARK    4  A    between atoms: C5_5  and  C23_29
REMARK    5  A    between atoms: C7_8  and  O6_28
REMARK    6  A    between atoms: C15_18  and  O5_27
REMARK    7  A    between atoms: C16_19  and  C18_22
REMARK    8  A    between atoms: C17_20  and  O4_21
REMARK    9  A    between atoms: C18_22  and  C19_23
REMARK   10  A    between atoms: C20_24  and  C21_25
REMARK   11  A    between atoms: C20_24  and  C22_26
REMARK   12  A    between atoms: C23_29  and  C24_30
REMARK   13  A    between atoms: C25_31  and  C26_32
REMARK                            x       y       z     vdW  Elec       q    Type
REMARK                         _______ _______ _______ _____ _____    ______ ____
ROOT
ATOM      5  C   UNL     1      48.356  18.731  19.263  0.00  0.00    -0.001 C 
ATOM     10  C   UNL     1      47.247  19.759  19.270  0.00  0.00    +0.405 C 
ATOM     11  C   UNL     1      45.893  19.298  19.634  0.00  0.00    +0.115 C 
ATOM     14  C   UNL     1      45.556  18.016  19.338  0.00  0.00    -0.067 C 
ATOM     15  C   UNL     1      46.523  17.122  18.693  0.00  0.00    +0.220 A 
ATOM     16  O   UNL     1      46.076  15.949  18.199  0.00  0.00    -0.218 OA
ATOM     17  C   UNL     1      46.860  15.097  17.510  0.00  0.00    +0.177 A 
ATOM     18  C   UNL     1      46.338  13.940  16.955  0.00  0.00    -0.027 A 
ATOM     19  C   UNL     1      47.162  13.073  16.253  0.00  0.00    +0.192 A 
ATOM     22  C   UNL     1      48.516  13.349  16.099  0.00  0.00    -0.160 A 
ATOM     28  C   UNL     1      49.057  14.499  16.646  0.00  0.00    +0.224 A 
ATOM     31  C   UNL     1      48.229  15.381  17.352  0.00  0.00    -0.260 A 
ATOM     32  C   UNL     1      48.758  16.617  17.950  0.00  0.00    +0.436 A 
ATOM     33  O   UNL     1      49.941  16.904  17.866  0.00  0.00    -0.437 OA
ATOM     34  O   UNL     1      47.462  20.919  18.989  0.00  0.00    -0.387 OA
ATOM     35  C   UNL     1      47.843  17.462  18.628  0.00  0.00    -0.280 A 
ENDROOT
BRANCH  11  12
ATOM     12  O   UNL     1      45.013  20.129  20.246  0.00  0.00    -0.436 OA
ATOM     13  H   UNL     1      44.527  19.720  20.975  0.00  0.00    +0.408 HD
ENDBRANCH  11  12
BRANCH  19  20
ATOM     20  O   UNL     1      46.642  11.942  15.712  0.00  0.00    -0.484 OA
ATOM     21  H   UNL     1      46.132  12.090  14.904  0.00  0.00    +0.402 HD
ENDBRANCH  19  20
BRANCH  28  29
ATOM     29  O   UNL     1      50.377  14.771  16.498  0.00  0.00    -0.465 OA
ATOM     30  H   UNL     1      50.645  15.630  16.852  0.00  0.00    +0.399 HD
ENDBRANCH  28  29
BRANCH   5   4
ATOM      4  C   UNL     1      48.797  18.443  20.700  0.00  0.00    +0.100 C 
BRANCH   4   3
ATOM      1  C   UNL     1      47.629  15.244  22.472  0.00  0.00    +0.067 C 
ATOM      2  C   UNL     1      47.905  16.688  22.143  0.00  0.00    -0.041 C 
ATOM      3  C   UNL     1      48.522  17.000  21.030  0.00  0.00    -0.058 C 
ENDBRANCH   4   3
ENDBRANCH   5   4
BRANCH   5   6
ATOM      6  C   UNL     1      49.544  19.262  18.458  0.00  0.00    +0.117 C 
BRANCH   6   7
ATOM      7  C   UNL     1      50.536  19.905  19.392  0.00  0.00    -0.057 C 
ATOM      8  C   UNL     1      51.236  20.938  18.993  0.00  0.00    -0.046 C 
ATOM      9  C   UNL     1      52.229  21.582  19.927  0.00  0.00    +0.058 C 
ENDBRANCH   6   7
ENDBRANCH   5   6
BRANCH  22  23
ATOM     23  C   UNL     1      49.397  12.394  15.336  0.00  0.00    +0.132 C 
BRANCH  23  24
ATOM     24  C   UNL     1      49.272  12.669  13.859  0.00  0.00    -0.065 C 
ATOM     25  C   UNL     1      50.332  12.999  13.163  0.00  0.00    -0.114 C 
ATOM     26  C   UNL     1      50.208  13.273  11.686  0.00  0.00    +0.073 C 
ATOM     27  C   UNL     1      51.674  13.105  13.838  0.00  0.00    +0.077 C 
ENDBRANCH  23  24
ENDBRANCH  22  23
TORSDOF 9
ENDMDL
MODEL 6
REMARK VINA RESULT:      -5.3      2.888      4.024
REMARK  Name = ZINC95486186
REMARK  13 active torsions:
REMARK  status: ('A' for Active; 'I' for Inactive)
REMARK    1  A    between atoms: C1_1  and  C2_2
REMARK    2  A    between atoms: C3_3  and  C4_4
REMARK    3  A    between atoms: C4_4  and  C5_5
REMARK    4  A    between atoms: C5_5  and  C23_29
REMARK    5  A    between atoms: C7_8  and  O6_28
REMARK    6  A    between atoms: C15_18  and  O5_27
REMARK    7  A    between atoms: C16_19  and  C18_22
REMARK    8  A    between atoms: C17_20  and  O4_21
REMARK    9  A    between atoms: C18_22  and  C19_23
REMARK   10  A    between atoms: C20_24  and  C21_25
REMARK   11  A    between atoms: C20_24  and  C22_26
REMARK   12  A    between atoms: C23_29  and  C24_30
REMARK   13  A    between atoms: C25_31  and  C26_32
REMARK                            x       y       z     vdW  Elec       q    Type
REMARK                         _______ _______ _______ _____ _____    ______ ____
ROOT
ATOM      5  C   UNL     1      50.022  16.113  18.092  0.00  0.00    -0.001 C 
ATOM     10  C   UNL     1      51.445  16.431  17.691  0.00  0.00    +0.405 C 
ATOM     11  C   UNL     1      52.194  17.381  18.537  0.00  0.00    +0.115 C 
ATOM     14  C   UNL     1      51.495  18.350  19.181  0.00  0.00    -0.067 C 
ATOM     15  C   UNL     1      50.036  18.429  19.046  0.00  0.00    +0.220 A 
ATOM     16  O   UNL     1      49.413  19.538  19.497  0.00  0.00    -0.218 OA
ATOM     17  C   UNL     1      48.092  19.751  19.342  0.00  0.00    +0.177 A 
ATOM     18  C   UNL     1      47.510  20.940  19.752  0.00  0.00    -0.027 A 
ATOM     19  C   UNL     1      46.147  21.138  19.588  0.00  0.00    +0.192 A 
ATOM     22  C   UNL     1      45.350  20.153  19.016  0.00  0.00    -0.160 A 
ATOM     28  C   UNL     1      45.912  18.960  18.601  0.00  0.00    +0.224 A 
ATOM     31  C   UNL     1      47.288  18.754  18.760  0.00  0.00    -0.260 A 
ATOM     32  C   UNL     1      47.931  17.502  18.332  0.00  0.00    +0.436 A 
ATOM     33  O   UNL     1      47.282  16.593  17.841  0.00  0.00    -0.437 OA
ATOM     34  O   UNL     1      51.951  15.925  16.712  0.00  0.00    -0.387 OA
ATOM     35  C   UNL     1      49.334  17.390  18.509  0.00  0.00    -0.280 A 
ENDROOT
BRANCH  11  12
ATOM     12  O   UNL     1      53.542  17.287  18.666  0.00  0.00    -0.436 OA
ATOM     13  H   UNL     1      54.025  18.041  18.301  0.00  0.00    +0.408 HD
ENDBRANCH  11  12
BRANCH  19  20
ATOM     20  O   UNL     1      45.585  22.307  19.993  0.00  0.00    -0.484 OA
ATOM     21  H   UNL     1      45.210  22.275  20.882  0.00  0.00    +0.402 HD
ENDBRANCH  19  20
BRANCH  28  29
ATOM     29  O   UNL     1      45.136  17.997  18.043  0.00  0.00    -0.465 OA
ATOM     30  H   UNL     1      45.568  17.510  17.327  0.00  0.00    +0.399 HD
ENDBRANCH  28  29
BRANCH   5   4
ATOM      4  C   UNL     1      50.027  15.128  19.263  0.00  0.00    +0.100 C 
BRANCH   4   3
ATOM      1  C   UNL     1      47.462  15.478  22.099  0.00  0.00    +0.067 C 
ATOM      2  C   UNL     1      48.296  14.924  20.972  0.00  0.00    -0.041 C 
ATOM      3  C   UNL     1      49.193  15.681  20.388  0.00  0.00    -0.058 C 
ENDBRANCH   4   3
ENDBRANCH   5   4
BRANCH   5   6
ATOM      6  C   UNL     1      49.279  15.496  16.905  0.00  0.00    +0.117 C 
BRANCH   6   7
ATOM      7  C   UNL     1      49.217  14.000  17.075  0.00  0.00    -0.057 C 
ATOM      8  C   UNL     1      48.166  13.338  16.660  0.00  0.00    -0.046 C 
ATOM      9  C   UNL     1      48.102  11.841  16.829  0.00  0.00    +0.058 C 
ENDBRANCH   6   7
ENDBRANCH   5   6
BRANCH  22  23
ATOM     23  C   UNL     1      43.871  20.386  18.850  0.00  0.00    +0.132 C 
BRANCH  23  24
ATOM     24  C   UNL     1      43.130  19.742  19.994  0.00  0.00    -0.065 C 
ATOM     25  C   UNL     1      41.831  19.581  19.925  0.00  0.00    -0.114 C 
ATOM     26  C   UNL     1      41.091  18.937  21.069  0.00  0.00    +0.073 C 
ATOM     27  C   UNL     1      41.079  20.041  18.704  0.00  0.00    +0.077 C 
ENDBRANCH  23  24
ENDBRANCH  22  23
TORSDOF 9
ENDMDL
MODEL 7
REMARK VINA RESULT:      -5.2      4.546      6.368
REMARK  Name = ZINC95486186
REMARK  13 active torsions:
REMARK  status: ('A' for Active; 'I' for Inactive)
REMARK    1  A    between atoms: C1_1  and  C2_2
REMARK    2  A    between atoms: C3_3  and  C4_4
REMARK    3  A    between atoms: C4_4  and  C5_5
REMARK    4  A    between atoms: C5_5  and  C23_29
REMARK    5  A    between atoms: C7_8  and  O6_28
REMARK    6  A    between atoms: C15_18  and  O5_27
REMARK    7  A    between atoms: C16_19  and  C18_22
REMARK    8  A    between atoms: C17_20  and  O4_21
REMARK    9  A    between atoms: C18_22  and  C19_23
REMARK   10  A    between atoms: C20_24  and  C21_25
REMARK   11  A    between atoms: C20_24  and  C22_26
REMARK   12  A    between atoms: C23_29  and  C24_30
REMARK   13  A    between atoms: C25_31  and  C26_32
REMARK                            x       y       z     vdW  Elec       q    Type
REMARK                         _______ _______ _______ _____ _____    ______ ____
ROOT
ATOM      5  C   UNL     1      48.787  13.569  18.027  0.00  0.00    -0.001 C 
ATOM     10  C   UNL     1      49.561  12.792  19.069  0.00  0.00    +0.405 C 
ATOM     11  C   UNL     1      48.792  12.173  20.166  0.00  0.00    +0.115 C 
ATOM     14  C   UNL     1      47.645  12.782  20.564  0.00  0.00    -0.067 C 
ATOM     15  C   UNL     1      47.186  14.008  19.902  0.00  0.00    +0.220 A 
ATOM     16  O   UNL     1      46.187  14.708  20.480  0.00  0.00    -0.218 OA
ATOM     17  C   UNL     1      45.752  15.891  20.004  0.00  0.00    +0.177 A 
ATOM     18  C   UNL     1      44.777  16.612  20.675  0.00  0.00    -0.027 A 
ATOM     19  C   UNL     1      44.338  17.826  20.168  0.00  0.00    +0.192 A 
ATOM     22  C   UNL     1      44.865  18.333  18.985  0.00  0.00    -0.160 A 
ATOM     28  C   UNL     1      45.838  17.628  18.300  0.00  0.00    +0.224 A 
ATOM     31  C   UNL     1      46.289  16.404  18.809  0.00  0.00    -0.260 A 
ATOM     32  C   UNL     1      47.324  15.620  18.118  0.00  0.00    +0.436 A 
ATOM     33  O   UNL     1      47.810  16.002  17.066  0.00  0.00    -0.437 OA
ATOM     34  O   UNL     1      50.767  12.682  19.005  0.00  0.00    -0.387 OA
ATOM     35  C   UNL     1      47.736  14.402  18.718  0.00  0.00    -0.280 A 
ENDROOT
BRANCH  11  12
ATOM     12  O   UNL     1      49.219  11.030  20.759  0.00  0.00    -0.436 OA
ATOM     13  H   UNL     1      50.156  10.840  20.617  0.00  0.00    +0.408 HD
ENDBRANCH  11  12
BRANCH  19  20
ATOM     20  O   UNL     1      43.382  18.525  20.832  0.00  0.00    -0.484 OA
ATOM     21  H   UNL     1      43.108  18.122  21.666  0.00  0.00    +0.402 HD
ENDBRANCH  19  20
BRANCH  28  29
ATOM     29  O   UNL     1      46.354  18.120  17.146  0.00  0.00    -0.465 OA
ATOM     30  H   UNL     1      46.263  19.079  17.052  0.00  0.00    +0.399 HD
ENDBRANCH  28  29
BRANCH   5   4
ATOM      4  C   UNL     1      48.113  12.595  17.058  0.00  0.00    +0.100 C 
BRANCH   4   3
ATOM      1  C   UNL     1      44.305  12.135  16.880  0.00  0.00    +0.067 C 
ATOM      2  C   UNL     1      45.788  11.866  16.911  0.00  0.00    -0.041 C 
ATOM      3  C   UNL     1      46.631  12.862  17.027  0.00  0.00    -0.058 C 
ENDBRANCH   4   3
ENDBRANCH   5   4
BRANCH   5   6
ATOM      6  C   UNL     1      49.740  14.483  17.254  0.00  0.00    +0.117 C 
BRANCH   6   7
ATOM      7  C   UNL     1      50.118  13.828  15.952  0.00  0.00    -0.057 C 
ATOM      8  C   UNL     1      51.381  13.692  15.630  0.00  0.00    -0.046 C 
ATOM      9  C   UNL     1      51.761  13.037  14.327  0.00  0.00    +0.058 C 
ENDBRANCH   6   7
ENDBRANCH   5   6
BRANCH  22  23
ATOM     23  C   UNL     1      44.373  19.652  18.447  0.00  0.00    +0.132 C 
BRANCH  23  24
ATOM     24  C   UNL     1      45.108  20.777  19.131  0.00  0.00    -0.065 C 
ATOM     25  C   UNL     1      44.441  21.791  19.623  0.00  0.00    -0.114 C 
ATOM     26  C   UNL     1      45.176  22.916  20.306  0.00  0.00    +0.073 C 
ATOM     27  C   UNL     1      42.940  21.834  19.505  0.00  0.00    +0.077 C 
ENDBRANCH  23  24
ENDBRANCH  22  23
TORSDOF 9
ENDMDL
MODEL 8
REMARK VINA RESULT:      -5.2      4.282      7.889
REMARK  Name = ZINC95486186
REMARK  13 active torsions:
REMARK  status: ('A' for Active; 'I' for Inactive)
REMARK    1  A    between atoms: C1_1  and  C2_2
REMARK    2  A    between atoms: C3_3  and  C4_4
REMARK    3  A    between atoms: C4_4  and  C5_5
REMARK    4  A    between atoms: C5_5  and  C23_29
REMARK    5  A    between atoms: C7_8  and  O6_28
REMARK    6  A    between atoms: C15_18  and  O5_27
REMARK    7  A    between atoms: C16_19  and  C18_22
REMARK    8  A    between atoms: C17_20  and  O4_21
REMARK    9  A    between atoms: C18_22  and  C19_23
REMARK   10  A    between atoms: C20_24  and  C21_25
REMARK   11  A    between atoms: C20_24  and  C22_26
REMARK   12  A    between atoms: C23_29  and  C24_30
REMARK   13  A    between atoms: C25_31  and  C26_32
REMARK                            x       y       z     vdW  Elec       q    Type
REMARK                         _______ _______ _______ _____ _____    ______ ____
ROOT
ATOM      5  C   UNL     1      48.757  13.615  16.655  0.00  0.00    -0.001 C 
ATOM     10  C   UNL     1      49.200  12.818  15.448  0.00  0.00    +0.405 C 
ATOM     11  C   UNL     1      50.652  12.673  15.224  0.00  0.00    +0.115 C 
ATOM     14  C   UNL     1      51.465  13.676  15.644  0.00  0.00    -0.067 C 
ATOM     15  C   UNL     1      50.906  14.855  16.315  0.00  0.00    +0.220 A 
ATOM     16  O   UNL     1      51.708  15.926  16.494  0.00  0.00    -0.218 OA
ATOM     17  C   UNL     1      51.271  17.089  17.016  0.00  0.00    +0.177 A 
ATOM     18  C   UNL     1      52.111  18.187  17.108  0.00  0.00    -0.027 A 
ATOM     19  C   UNL     1      51.644  19.374  17.654  0.00  0.00    +0.192 A 
ATOM     22  C   UNL     1      50.336  19.478  18.114  0.00  0.00    -0.160 A 
ATOM     28  C   UNL     1      49.483  18.393  18.031  0.00  0.00    +0.224 A 
ATOM     31  C   UNL     1      49.946  17.193  17.478  0.00  0.00    -0.260 A 
ATOM     32  C   UNL     1      49.075  16.012  17.367  0.00  0.00    +0.436 A 
ATOM     33  O   UNL     1      47.924  16.036  17.771  0.00  0.00    -0.437 OA
ATOM     34  O   UNL     1      48.394  12.316  14.694  0.00  0.00    -0.387 OA
ATOM     35  C   UNL     1      49.621  14.846  16.772  0.00  0.00    -0.280 A 
ENDROOT
BRANCH  11  12
ATOM     12  O   UNL     1      51.158  11.570  14.617  0.00  0.00    -0.436 OA
ATOM     13  H   UNL     1      51.043  11.562  13.658  0.00  0.00    +0.408 HD
ENDBRANCH  11  12
BRANCH  19  20
ATOM     20  O   UNL     1      52.474  20.445  17.740  0.00  0.00    -0.484 OA
ATOM     21  H   UNL     1      52.244  21.066  18.444  0.00  0.00    +0.402 HD
ENDBRANCH  19  20
BRANCH  28  29
ATOM     29  O   UNL     1      48.206  18.492  18.480  0.00  0.00    -0.465 OA
ATOM     30  H   UNL     1      47.566  18.734  17.796  0.00  0.00    +0.399 HD
ENDBRANCH  28  29
BRANCH   5   4
ATOM      4  C   UNL     1      48.906  12.762  17.916  0.00  0.00    +0.100 C 
BRANCH   4   3
ATOM      1  C   UNL     1      50.089  14.365  21.198  0.00  0.00    +0.067 C 
ATOM      2  C   UNL     1      49.282  13.610  20.174  0.00  0.00    -0.041 C 
ATOM      3  C   UNL     1      49.713  13.517  18.940  0.00  0.00    -0.058 C 
ENDBRANCH   4   3
ENDBRANCH   5   4
BRANCH   5   6
ATOM      6  C   UNL     1      47.294  14.030  16.486  0.00  0.00    +0.117 C 
BRANCH   6   7
ATOM      7  C   UNL     1      46.427  13.192  17.390  0.00  0.00    -0.057 C 
ATOM      8  C   UNL     1      45.635  13.771  18.257  0.00  0.00    -0.046 C 
ATOM      9  C   UNL     1      44.767  12.934  19.162  0.00  0.00    +0.058 C 
ENDBRANCH   6   7
ENDBRANCH   5   6
BRANCH  22  23
ATOM     23  C   UNL     1      49.849  20.775  18.706  0.00  0.00    +0.132 C 
BRANCH  23  24
ATOM     24  C   UNL     1      50.079  20.763  20.196  0.00  0.00    -0.065 C 
ATOM     25  C   UNL     1      49.072  20.945  21.016  0.00  0.00    -0.114 C 
ATOM     26  C   UNL     1      49.302  20.933  22.505  0.00  0.00    +0.073 C 
ATOM     27  C   UNL     1      47.686  21.166  20.469  0.00  0.00    +0.077 C 
ENDBRANCH  23  24
ENDBRANCH  22  23
TORSDOF 9
ENDMDL
MODEL 9
REMARK VINA RESULT:      -5.0      3.955      8.301
REMARK  Name = ZINC95486186
REMARK  13 active torsions:
REMARK  status: ('A' for Active; 'I' for Inactive)
REMARK    1  A    between atoms: C1_1  and  C2_2
REMARK    2  A    between atoms: C3_3  and  C4_4
REMARK    3  A    between atoms: C4_4  and  C5_5
REMARK    4  A    between atoms: C5_5  and  C23_29
REMARK    5  A    between atoms: C7_8  and  O6_28
REMARK    6  A    between atoms: C15_18  and  O5_27
REMARK    7  A    between atoms: C16_19  and  C18_22
REMARK    8  A    between atoms: C17_20  and  O4_21
REMARK    9  A    between atoms: C18_22  and  C19_23
REMARK   10  A    between atoms: C20_24  and  C21_25
REMARK   11  A    between atoms: C20_24  and  C22_26
REMARK   12  A    between atoms: C23_29  and  C24_30
REMARK   13  A    between atoms: C25_31  and  C26_32
REMARK                            x       y       z     vdW  Elec       q    Type
REMARK                         _______ _______ _______ _____ _____    ______ ____
ROOT
ATOM      5  C   UNL     1      47.065  14.218  18.700  0.00  0.00    -0.001 C 
ATOM     10  C   UNL     1      46.731  13.169  17.663  0.00  0.00    +0.405 C 
ATOM     11  C   UNL     1      47.858  12.502  16.982  0.00  0.00    +0.115 C 
ATOM     14  C   UNL     1      49.006  13.207  16.812  0.00  0.00    -0.067 C 
ATOM     15  C   UNL     1      49.116  14.582  17.311  0.00  0.00    +0.220 A 
ATOM     16  O   UNL     1      50.170  15.323  16.910  0.00  0.00    -0.218 OA
ATOM     17  C   UNL     1      50.320  16.622  17.237  0.00  0.00    +0.177 A 
ATOM     18  C   UNL     1      51.378  17.363  16.738  0.00  0.00    -0.027 A 
ATOM     19  C   UNL     1      51.518  18.698  17.090  0.00  0.00    +0.192 A 
ATOM     22  C   UNL     1      50.604  19.307  17.943  0.00  0.00    -0.160 A 
ATOM     28  C   UNL     1      49.540  18.583  18.451  0.00  0.00    +0.224 A 
ATOM     31  C   UNL     1      49.392  17.236  18.098  0.00  0.00    -0.260 A 
ATOM     32  C   UNL     1      48.276  16.427  18.611  0.00  0.00    +0.436 A 
ATOM     33  O   UNL     1      47.453  16.899  19.379  0.00  0.00    -0.437 OA
ATOM     34  O   UNL     1      45.581  12.885  17.402  0.00  0.00    -0.387 OA
ATOM     35  C   UNL     1      48.190  15.078  18.182  0.00  0.00    -0.280 A 
ENDROOT
BRANCH  11  12
ATOM     12  O   UNL     1      47.750  11.225  16.540  0.00  0.00    -0.436 OA
ATOM     13  H   UNL     1      46.982  10.751  16.889  0.00  0.00    +0.408 HD
ENDBRANCH  11  12
BRANCH  19  20
ATOM     20  O   UNL     1      52.558  19.417  16.596  0.00  0.00    -0.484 OA
ATOM     21  H   UNL     1      52.722  20.246  17.066  0.00  0.00    +0.402 HD
ENDBRANCH  19  20
BRANCH  28  29
ATOM     29  O   UNL     1      48.648  19.174  19.284  0.00  0.00    -0.465 OA
ATOM     30  H   UNL     1      47.910  18.603  19.540  0.00  0.00    +0.399 HD
ENDBRANCH  28  29
BRANCH   5   4
ATOM      4  C   UNL     1      47.498  13.535  19.999  0.00  0.00    +0.100 C 
BRANCH   4   3
ATOM      1  C   UNL     1      51.189  13.312  21.036  0.00  0.00    +0.067 C 
ATOM      2  C   UNL     1      49.753  12.963  20.740  0.00  0.00    -0.041 C 
ATOM      3  C   UNL     1      48.933  13.883  20.295  0.00  0.00    -0.058 C 
ENDBRANCH   4   3
ENDBRANCH   5   4
BRANCH   5   6
ATOM      6  C   UNL     1      45.835  15.089  18.965  0.00  0.00    +0.117 C 
BRANCH   6   7
ATOM      7  C   UNL     1      45.267  14.757  20.320  0.00  0.00    -0.057 C 
ATOM      8  C   UNL     1      44.837  15.717  21.102  0.00  0.00    -0.046 C 
ATOM      9  C   UNL     1      44.268  15.387  22.458  0.00  0.00    +0.058 C 
ENDBRANCH   6   7
ENDBRANCH   5   6
BRANCH  22  23
ATOM     23  C   UNL     1      50.774  20.757  18.316  0.00  0.00    +0.132 C 
BRANCH  23  24
ATOM     24  C   UNL     1      51.891  20.889  19.319  0.00  0.00    -0.065 C 
ATOM     25  C   UNL     1      51.615  21.103  20.582  0.00  0.00    -0.114 C 
ATOM     26  C   UNL     1      52.732  21.235  21.586  0.00  0.00    +0.073 C 
ATOM     27  C   UNL     1      50.182  21.219  21.031  0.00  0.00    +0.077 C 
ENDBRANCH  23  24
ENDBRANCH  22  23
TORSDOF 9
ENDMDL
