MODEL 1
REMARK VINA RESULT:      -5.4      0.000      0.000
REMARK  Name = ZINC18847046
REMARK  3 active torsions:
REMARK  status: ('A' for Active; 'I' for Inactive)
REMARK    1  A    between atoms: C1_1  and  C2_2
REMARK    2  A    between atoms: C10_11  and  O1_16
REMARK    3  A    between atoms: O1_16  and  C13_17
REMARK                            x       y       z     vdW  Elec       q    Type
REMARK                         _______ _______ _______ _____ _____    ______ ____
ROOT
ATOM      1  C   UNL     1      45.861  25.360  20.891  0.00  0.00    +0.184 C 
ATOM      2  C   UNL     1      45.844  23.874  21.137  0.00  0.00    +0.156 A 
ATOM      3  C   UNL     1      44.818  23.099  20.608  0.00  0.00    +0.115 A 
ATOM      4  C   UNL     1      44.827  21.716  20.852  0.00  0.00    +0.019 A 
ATOM      5  C   UNL     1      43.641  21.162  20.182  0.00  0.00    -0.167 A 
ATOM      6  C   UNL     1      43.115  19.877  20.066  0.00  0.00    +0.150 A 
ATOM      7  C   UNL     1      41.955  19.671  19.354  0.00  0.00    -0.067 A 
ATOM      8  C   UNL     1      41.304  20.743  18.750  0.00  0.00    +0.206 A 
ATOM     11  C   UNL     1      41.815  22.023  18.859  0.00  0.00    -0.036 A 
ATOM     12  C   UNL     1      42.986  22.247  19.575  0.00  0.00    +0.206 A 
ATOM     13  C   UNL     1      45.864  21.176  21.612  0.00  0.00    +0.105 A 
ATOM     14  C   UNL     1      46.840  22.020  22.097  0.00  0.00    +0.295 A 
ATOM     15  N   UNL     1      43.707  23.398  19.841  0.00  0.00    -0.584 N 
ATOM     16  H   UNL     1      43.466  24.286  19.534  0.00  0.00    +0.436 HD
ATOM     17  N   UNL     1      46.804  23.317  21.845  0.00  0.00    -0.430 N 
ATOM     18  H   UNL     1      47.510  23.881  22.199  0.00  0.00    +0.451 HD
ENDROOT
BRANCH   8   9
ATOM      9  O   UNL     1      40.160  20.530  18.048  0.00  0.00    -0.303 OA
ATOM     10  C   UNL     1      39.042  21.364  18.362  0.00  0.00    +0.264 C 
ENDBRANCH   8   9
TORSDOF 1
ENDMDL
MODEL 2
REMARK VINA RESULT:      -5.3      4.051      6.024
REMARK  Name = ZINC18847046
REMARK  3 active torsions:
REMARK  status: ('A' for Active; 'I' for Inactive)
REMARK    1  A    between atoms: C1_1  and  C2_2
REMARK    2  A    between atoms: C10_11  and  O1_16
REMARK    3  A    between atoms: O1_16  and  C13_17
REMARK                            x       y       z     vdW  Elec       q    Type
REMARK                         _______ _______ _______ _____ _____    ______ ____
ROOT
ATOM      1  C   UNL     1      41.717  20.079  18.774  0.00  0.00    +0.184 C 
ATOM      2  C   UNL     1      42.897  20.969  19.070  0.00  0.00    +0.156 A 
ATOM      3  C   UNL     1      44.186  20.463  18.959  0.00  0.00    +0.115 A 
ATOM      4  C   UNL     1      45.268  21.316  19.240  0.00  0.00    +0.019 A 
ATOM      5  C   UNL     1      46.490  20.523  19.045  0.00  0.00    -0.167 A 
ATOM      6  C   UNL     1      47.849  20.806  19.169  0.00  0.00    +0.150 A 
ATOM      7  C   UNL     1      48.782  19.827  18.910  0.00  0.00    -0.067 A 
ATOM      8  C   UNL     1      48.372  18.553  18.526  0.00  0.00    +0.206 A 
ATOM     11  C   UNL     1      47.026  18.259  18.401  0.00  0.00    -0.036 A 
ATOM     12  C   UNL     1      46.073  19.239  18.658  0.00  0.00    +0.206 A 
ATOM     13  C   UNL     1      45.004  22.632  19.616  0.00  0.00    +0.105 A 
ATOM     14  C   UNL     1      43.692  23.048  19.700  0.00  0.00    +0.295 A 
ATOM     15  N   UNL     1      44.690  19.223  18.612  0.00  0.00    -0.584 N 
ATOM     16  H   UNL     1      44.152  18.452  18.372  0.00  0.00    +0.436 HD
ATOM     17  N   UNL     1      42.697  22.221  19.424  0.00  0.00    -0.430 N 
ATOM     18  H   UNL     1      41.787  22.549  19.489  0.00  0.00    +0.451 HD
ENDROOT
BRANCH   8   9
ATOM      9  O   UNL     1      49.299  17.593  18.273  0.00  0.00    -0.303 OA
ATOM     10  C   UNL     1      50.339  17.923  17.349  0.00  0.00    +0.264 C 
ENDBRANCH   8   9
TORSDOF 1
ENDMDL
MODEL 3
REMARK VINA RESULT:      -5.3      4.004      5.719
REMARK  Name = ZINC18847046
REMARK  3 active torsions:
REMARK  status: ('A' for Active; 'I' for Inactive)
REMARK    1  A    between atoms: C1_1  and  C2_2
REMARK    2  A    between atoms: C10_11  and  O1_16
REMARK    3  A    between atoms: O1_16  and  C13_17
REMARK                            x       y       z     vdW  Elec       q    Type
REMARK                         _______ _______ _______ _____ _____    ______ ____
ROOT
ATOM      1  C   UNL     1      40.917  21.707  18.555  0.00  0.00    +0.184 C 
ATOM      2  C   UNL     1      41.335  20.585  19.471  0.00  0.00    +0.156 A 
ATOM      3  C   UNL     1      42.590  20.008  19.326  0.00  0.00    +0.115 A 
ATOM      4  C   UNL     1      42.954  18.964  20.193  0.00  0.00    +0.019 A 
ATOM      5  C   UNL     1      44.313  18.554  19.812  0.00  0.00    -0.167 A 
ATOM      6  C   UNL     1      45.195  17.587  20.291  0.00  0.00    +0.150 A 
ATOM      7  C   UNL     1      46.434  17.438  19.710  0.00  0.00    -0.067 A 
ATOM      8  C   UNL     1      46.809  18.250  18.642  0.00  0.00    +0.206 A 
ATOM     11  C   UNL     1      45.943  19.212  18.157  0.00  0.00    -0.036 A 
ATOM     12  C   UNL     1      44.688  19.374  18.735  0.00  0.00    +0.206 A 
ATOM     13  C   UNL     1      42.043  18.552  21.165  0.00  0.00    +0.105 A 
ATOM     14  C   UNL     1      40.819  19.182  21.237  0.00  0.00    +0.295 A 
ATOM     15  N   UNL     1      43.643  20.239  18.459  0.00  0.00    -0.584 N 
ATOM     16  H   UNL     1      43.649  20.909  17.758  0.00  0.00    +0.436 HD
ATOM     17  N   UNL     1      40.509  20.164  20.407  0.00  0.00    -0.430 N 
ATOM     18  H   UNL     1      39.641  20.588  20.489  0.00  0.00    +0.451 HD
ENDROOT
BRANCH   8   9
ATOM      9  O   UNL     1      48.034  18.096  18.075  0.00  0.00    -0.303 OA
ATOM     10  C   UNL     1      48.198  16.997  17.175  0.00  0.00    +0.264 C 
ENDBRANCH   8   9
TORSDOF 1
ENDMDL
MODEL 4
REMARK VINA RESULT:      -5.2      3.015      5.227
REMARK  Name = ZINC18847046
REMARK  3 active torsions:
REMARK  status: ('A' for Active; 'I' for Inactive)
REMARK    1  A    between atoms: C1_1  and  C2_2
REMARK    2  A    between atoms: C10_11  and  O1_16
REMARK    3  A    between atoms: O1_16  and  C13_17
REMARK                            x       y       z     vdW  Elec       q    Type
REMARK                         _______ _______ _______ _____ _____    ______ ____
ROOT
ATOM      1  C   UNL     1      40.115  21.079  18.341  0.00  0.00    +0.184 C 
ATOM      2  C   UNL     1      41.454  21.577  18.821  0.00  0.00    +0.156 A 
ATOM      3  C   UNL     1      42.366  20.683  19.368  0.00  0.00    +0.115 A 
ATOM      4  C   UNL     1      43.607  21.175  19.807  0.00  0.00    +0.019 A 
ATOM      5  C   UNL     1      44.355  20.022  20.332  0.00  0.00    -0.167 A 
ATOM      6  C   UNL     1      45.620  19.875  20.897  0.00  0.00    +0.150 A 
ATOM      7  C   UNL     1      46.050  18.632  21.303  0.00  0.00    -0.067 A 
ATOM      8  C   UNL     1      45.225  17.521  21.152  0.00  0.00    +0.206 A 
ATOM     11  C   UNL     1      43.967  17.654  20.594  0.00  0.00    -0.036 A 
ATOM     12  C   UNL     1      43.519  18.904  20.179  0.00  0.00    +0.206 A 
ATOM     13  C   UNL     1      43.874  22.537  19.674  0.00  0.00    +0.105 A 
ATOM     14  C   UNL     1      42.909  23.351  19.119  0.00  0.00    +0.295 A 
ATOM     15  N   UNL     1      42.333  19.320  19.600  0.00  0.00    -0.584 N 
ATOM     16  H   UNL     1      41.586  18.739  19.388  0.00  0.00    +0.436 HD
ATOM     17  N   UNL     1      41.752  22.855  18.712  0.00  0.00    -0.430 N 
ATOM     18  H   UNL     1      41.099  23.456  18.323  0.00  0.00    +0.451 HD
ENDROOT
BRANCH   8   9
ATOM      9  O   UNL     1      45.658  16.298  21.556  0.00  0.00    -0.303 OA
ATOM     10  C   UNL     1      45.206  15.169  20.803  0.00  0.00    +0.264 C 
ENDBRANCH   8   9
TORSDOF 1
ENDMDL
MODEL 5
REMARK VINA RESULT:      -5.1     20.286     22.273
REMARK  Name = ZINC18847046
REMARK  3 active torsions:
REMARK  status: ('A' for Active; 'I' for Inactive)
REMARK    1  A    between atoms: C1_1  and  C2_2
REMARK    2  A    between atoms: C10_11  and  O1_16
REMARK    3  A    between atoms: O1_16  and  C13_17
REMARK                            x       y       z     vdW  Elec       q    Type
REMARK                         _______ _______ _______ _____ _____    ______ ____
ROOT
ATOM      1  C   UNL     1      50.388  32.601   3.453  0.00  0.00    +0.184 C 
ATOM      2  C   UNL     1      51.228  33.089   4.606  0.00  0.00    +0.156 A 
ATOM      3  C   UNL     1      52.611  32.980   4.546  0.00  0.00    +0.115 A 
ATOM      4  C   UNL     1      53.369  33.443   5.635  0.00  0.00    +0.019 A 
ATOM      5  C   UNL     1      54.780  33.202   5.299  0.00  0.00    -0.167 A 
ATOM      6  C   UNL     1      55.981  33.440   5.965  0.00  0.00    +0.150 A 
ATOM      7  C   UNL     1      57.175  33.092   5.376  0.00  0.00    -0.067 A 
ATOM      8  C   UNL     1      57.187  32.501   4.115  0.00  0.00    +0.206 A 
ATOM     11  C   UNL     1      56.003  32.259   3.444  0.00  0.00    -0.036 A 
ATOM     12  C   UNL     1      54.789  32.605   4.028  0.00  0.00    +0.206 A 
ATOM     13  C   UNL     1      52.703  33.996   6.729  0.00  0.00    +0.105 A 
ATOM     14  C   UNL     1      51.327  34.065   6.701  0.00  0.00    +0.295 A 
ATOM     15  N   UNL     1      53.481  32.481   3.594  0.00  0.00    -0.584 N 
ATOM     16  H   UNL     1      53.213  32.098   2.743  0.00  0.00    +0.436 HD
ATOM     17  N   UNL     1      50.644  33.623   5.659  0.00  0.00    -0.430 N 
ATOM     18  H   UNL     1      49.676  33.691   5.672  0.00  0.00    +0.451 HD
ENDROOT
BRANCH   8   9
ATOM      9  O   UNL     1      58.371  32.162   3.540  0.00  0.00    -0.303 OA
ATOM     10  C   UNL     1      58.866  30.847   3.802  0.00  0.00    +0.264 C 
ENDBRANCH   8   9
TORSDOF 1
ENDMDL
MODEL 6
REMARK VINA RESULT:      -5.0      3.731      4.617
REMARK  Name = ZINC18847046
REMARK  3 active torsions:
REMARK  status: ('A' for Active; 'I' for Inactive)
REMARK    1  A    between atoms: C1_1  and  C2_2
REMARK    2  A    between atoms: C10_11  and  O1_16
REMARK    3  A    between atoms: O1_16  and  C13_17
REMARK                            x       y       z     vdW  Elec       q    Type
REMARK                         _______ _______ _______ _____ _____    ______ ____
ROOT
ATOM      1  C   UNL     1      47.608  16.566  17.247  0.00  0.00    +0.184 C 
ATOM      2  C   UNL     1      47.799  17.900  17.923  0.00  0.00    +0.156 A 
ATOM      3  C   UNL     1      46.692  18.681  18.231  0.00  0.00    +0.115 A 
ATOM      4  C   UNL     1      46.899  19.920  18.861  0.00  0.00    +0.019 A 
ATOM      5  C   UNL     1      45.570  20.517  19.061  0.00  0.00    -0.167 A 
ATOM      6  C   UNL     1      45.130  21.714  19.623  0.00  0.00    +0.150 A 
ATOM      7  C   UNL     1      43.784  21.999  19.666  0.00  0.00    -0.067 A 
ATOM      8  C   UNL     1      42.860  21.094  19.150  0.00  0.00    +0.206 A 
ATOM     11  C   UNL     1      43.284  19.904  18.589  0.00  0.00    -0.036 A 
ATOM     12  C   UNL     1      44.641  19.603  18.539  0.00  0.00    +0.206 A 
ATOM     13  C   UNL     1      48.204  20.314  19.153  0.00  0.00    +0.105 A 
ATOM     14  C   UNL     1      49.243  19.474  18.810  0.00  0.00    +0.295 A 
ATOM     15  N   UNL     1      45.332  18.509  18.047  0.00  0.00    -0.584 N 
ATOM     16  H   UNL     1      44.921  17.735  17.631  0.00  0.00    +0.436 HD
ATOM     17  N   UNL     1      49.013  18.313  18.222  0.00  0.00    -0.430 N 
ATOM     18  H   UNL     1      49.768  17.745  17.999  0.00  0.00    +0.451 HD
ENDROOT
BRANCH   8   9
ATOM      9  O   UNL     1      41.533  21.383  19.197  0.00  0.00    -0.303 OA
ATOM     10  C   UNL     1      40.666  20.585  18.387  0.00  0.00    +0.264 C 
ENDBRANCH   8   9
TORSDOF 1
ENDMDL
MODEL 7
REMARK VINA RESULT:      -4.8      4.734      6.161
REMARK  Name = ZINC18847046
REMARK  3 active torsions:
REMARK  status: ('A' for Active; 'I' for Inactive)
REMARK    1  A    between atoms: C1_1  and  C2_2
REMARK    2  A    between atoms: C10_11  and  O1_16
REMARK    3  A    between atoms: O1_16  and  C13_17
REMARK                            x       y       z     vdW  Elec       q    Type
REMARK                         _______ _______ _______ _____ _____    ______ ____
ROOT
ATOM      1  C   UNL     1      43.400  21.425  19.553  0.00  0.00    +0.184 C 
ATOM      2  C   UNL     1      43.441  20.082  20.235  0.00  0.00    +0.156 A 
ATOM      3  C   UNL     1      44.199  19.054  19.688  0.00  0.00    +0.115 A 
ATOM      4  C   UNL     1      44.219  17.811  20.345  0.00  0.00    +0.019 A 
ATOM      5  C   UNL     1      45.089  16.930  19.552  0.00  0.00    -0.167 A 
ATOM      6  C   UNL     1      45.493  15.603  19.688  0.00  0.00    +0.150 A 
ATOM      7  C   UNL     1      46.336  15.043  18.756  0.00  0.00    -0.067 A 
ATOM      8  C   UNL     1      46.787  15.797  17.675  0.00  0.00    +0.206 A 
ATOM     11  C   UNL     1      46.393  17.114  17.528  0.00  0.00    -0.036 A 
ATOM     12  C   UNL     1      45.541  17.694  18.463  0.00  0.00    +0.206 A 
ATOM     13  C   UNL     1      43.480  17.661  21.517  0.00  0.00    +0.105 A 
ATOM     14  C   UNL     1      42.756  18.736  21.988  0.00  0.00    +0.295 A 
ATOM     15  N   UNL     1      44.998  18.962  18.562  0.00  0.00    -0.584 N 
ATOM     16  H   UNL     1      45.154  19.684  17.933  0.00  0.00    +0.436 HD
ATOM     17  N   UNL     1      42.762  19.893  21.348  0.00  0.00    -0.430 N 
ATOM     18  H   UNL     1      42.245  20.629  21.710  0.00  0.00    +0.451 HD
ENDROOT
BRANCH   8   9
ATOM      9  O   UNL     1      47.620  15.235  16.760  0.00  0.00    -0.303 OA
ATOM     10  C   UNL     1      47.465  13.836  16.515  0.00  0.00    +0.264 C 
ENDBRANCH   8   9
TORSDOF 1
ENDMDL
MODEL 8
REMARK VINA RESULT:      -4.8      4.979      6.550
REMARK  Name = ZINC18847046
REMARK  3 active torsions:
REMARK  status: ('A' for Active; 'I' for Inactive)
REMARK    1  A    between atoms: C1_1  and  C2_2
REMARK    2  A    between atoms: C10_11  and  O1_16
REMARK    3  A    between atoms: O1_16  and  C13_17
REMARK                            x       y       z     vdW  Elec       q    Type
REMARK                         _______ _______ _______ _____ _____    ______ ____
ROOT
ATOM      1  C   UNL     1      42.366  18.522  21.751  0.00  0.00    +0.184 C 
ATOM      2  C   UNL     1      43.239  19.136  20.687  0.00  0.00    +0.156 A 
ATOM      3  C   UNL     1      44.130  18.337  19.981  0.00  0.00    +0.115 A 
ATOM      4  C   UNL     1      44.932  18.936  18.995  0.00  0.00    +0.019 A 
ATOM      5  C   UNL     1      45.764  17.867  18.423  0.00  0.00    -0.167 A 
ATOM      6  C   UNL     1      46.739  17.837  17.427  0.00  0.00    +0.150 A 
ATOM      7  C   UNL     1      47.359  16.650  17.107  0.00  0.00    -0.067 A 
ATOM      8  C   UNL     1      47.015  15.478  17.776  0.00  0.00    +0.206 A 
ATOM     11  C   UNL     1      46.050  15.495  18.766  0.00  0.00    -0.036 A 
ATOM     12  C   UNL     1      45.415  16.687  19.100  0.00  0.00    +0.206 A 
ATOM     13  C   UNL     1      44.800  20.305  18.763  0.00  0.00    +0.105 A 
ATOM     14  C   UNL     1      43.889  21.019  19.512  0.00  0.00    +0.295 A 
ATOM     15  N   UNL     1      44.435  16.989  20.029  0.00  0.00    -0.584 N 
ATOM     16  H   UNL     1      44.022  16.347  20.627  0.00  0.00    +0.436 HD
ATOM     17  N   UNL     1      43.147  20.424  20.430  0.00  0.00    -0.430 N 
ATOM     18  H   UNL     1      42.513  20.957  20.935  0.00  0.00    +0.451 HD
ENDROOT
BRANCH   8   9
ATOM      9  O   UNL     1      47.630  14.311  17.453  0.00  0.00    -0.303 OA
ATOM     10  C   UNL     1      47.281  13.718  16.200  0.00  0.00    +0.264 C 
ENDBRANCH   8   9
TORSDOF 1
ENDMDL
MODEL 9
REMARK VINA RESULT:      -4.7      5.237      6.897
REMARK  Name = ZINC18847046
REMARK  3 active torsions:
REMARK  status: ('A' for Active; 'I' for Inactive)
REMARK    1  A    between atoms: C1_1  and  C2_2
REMARK    2  A    between atoms: C10_11  and  O1_16
REMARK    3  A    between atoms: O1_16  and  C13_17
REMARK                            x       y       z     vdW  Elec       q    Type
REMARK                         _______ _______ _______ _____ _____    ______ ____
ROOT
ATOM      1  C   UNL     1      45.234  13.357  19.613  0.00  0.00    +0.184 C 
ATOM      2  C   UNL     1      45.812  14.400  18.692  0.00  0.00    +0.156 A 
ATOM      3  C   UNL     1      45.568  15.746  18.935  0.00  0.00    +0.115 A 
ATOM      4  C   UNL     1      46.119  16.698  18.060  0.00  0.00    +0.019 A 
ATOM      5  C   UNL     1      45.701  18.017  18.556  0.00  0.00    -0.167 A 
ATOM      6  C   UNL     1      45.926  19.322  18.121  0.00  0.00    +0.150 A 
ATOM      7  C   UNL     1      45.385  20.380  18.815  0.00  0.00    -0.067 A 
ATOM      8  C   UNL     1      44.611  20.152  19.950  0.00  0.00    +0.206 A 
ATOM     11  C   UNL     1      44.380  18.862  20.391  0.00  0.00    -0.036 A 
ATOM     12  C   UNL     1      44.921  17.782  19.699  0.00  0.00    +0.206 A 
ATOM     13  C   UNL     1      46.890  16.254  16.986  0.00  0.00    +0.105 A 
ATOM     14  C   UNL     1      47.080  14.898  16.822  0.00  0.00    +0.295 A 
ATOM     15  N   UNL     1      44.853  16.417  19.911  0.00  0.00    -0.584 N 
ATOM     16  H   UNL     1      44.372  15.991  20.638  0.00  0.00    +0.436 HD
ATOM     17  N   UNL     1      46.550  14.029  17.666  0.00  0.00    -0.430 N 
ATOM     18  H   UNL     1      46.708  13.083  17.522  0.00  0.00    +0.451 HD
ENDROOT
BRANCH   8   9
ATOM      9  O   UNL     1      44.081  21.202  20.630  0.00  0.00    -0.303 OA
ATOM     10  C   UNL     1      44.062  22.465  19.959  0.00  0.00    +0.264 C 
ENDBRANCH   8   9
TORSDOF 1
ENDMDL
