MODEL 1
REMARK VINA RESULT:      -5.8      0.000      0.000
REMARK  Name = ZINC14594077
REMARK  14 active torsions:
REMARK  status: ('A' for Active; 'I' for Inactive)
REMARK    1  A    between atoms: C1_1  and  C2_2
REMARK    2  A    between atoms: C2_2  and  C26_32
REMARK    3  A    between atoms: C3_3  and  C4_4
REMARK    4  A    between atoms: C4_4  and  C5_5
REMARK    5  A    between atoms: C7_7  and  C20_24
REMARK    6  A    between atoms: C7_7  and  O5_29
REMARK    7  A    between atoms: C9_10  and  C11_13
REMARK    8  A    between atoms: C9_10  and  O4_23
REMARK    9  A    between atoms: C11_13  and  C12_15
REMARK   10  A    between atoms: C13_16  and  C14_17
REMARK   11  A    between atoms: C20_24  and  C21_25
REMARK   12  A    between atoms: C22_26  and  C23_27
REMARK   13  A    between atoms: C22_26  and  C24_28
REMARK   14  A    between atoms: O5_29  and  C25_30
REMARK                            x       y       z     vdW  Elec       q    Type
REMARK                         _______ _______ _______ _____ _____    ______ ____
ROOT
ATOM      6  C   UNL     1      46.120  13.714  17.839  0.00  0.00    -0.024 C 
ATOM      7  C   UNL     1      46.660  14.488  16.808  0.00  0.00    +0.375 C 
ATOM      8  O   UNL     1      46.861  13.982  15.722  0.00  0.00    -0.402 OA
ATOM      9  C   UNL     1      46.997  15.943  17.022  0.00  0.00    +0.001 C 
ATOM     22  C   UNL     1      46.146  16.457  18.166  0.00  0.00    +0.353 C 
ATOM     23  O   UNL     1      45.516  17.483  18.072  0.00  0.00    -0.351 OA
ATOM     24  C   UNL     1      46.120  15.628  19.434  0.00  0.00    +0.077 C 
ATOM     32  C   UNL     1      45.840  14.195  19.060  0.00  0.00    +0.311 C 
ATOM     33  O   UNL     1      45.297  13.374  19.978  0.00  0.00    -0.448 OA
ENDROOT
BRANCH   9  10
ATOM     10  O   UNL     1      46.710  16.685  15.835  0.00  0.00    -0.490 OA
ATOM     11  H   UNL     1      46.961  17.618  15.883  0.00  0.00    +0.400 HD
ENDBRANCH   9  10
BRANCH   9  12
ATOM     12  C   UNL     1      48.457  16.082  17.369  0.00  0.00    +0.382 C 
ATOM     21  O   UNL     1      49.192  15.118  17.298  0.00  0.00    -0.442 OA
BRANCH  12  13
ATOM     13  C   UNL     1      48.969  17.331  17.774  0.00  0.00    -0.122 C 
ATOM     14  C   UNL     1      50.300  17.570  17.711  0.00  0.00    +0.187 C 
BRANCH  14  15
ATOM     15  C   UNL     1      50.835  18.873  18.134  0.00  0.00    -0.104 A 
ATOM     16  C   UNL     1      52.216  19.097  18.140  0.00  0.00    +0.047 A 
ATOM     17  C   UNL     1      52.709  20.324  18.532  0.00  0.00    +0.006 A 
ATOM     18  C   UNL     1      51.843  21.328  18.930  0.00  0.00    +0.037 A 
ATOM     19  C   UNL     1      50.476  21.112  18.933  0.00  0.00    +0.004 A 
ATOM     20  C   UNL     1      49.965  19.893  18.537  0.00  0.00    +0.050 A 
ENDBRANCH  14  15
ENDBRANCH  12  13
ENDBRANCH   9  12
BRANCH  24  25
ATOM     25  O   UNL     1      45.088  16.107  20.298  0.00  0.00    -0.316 OA
ATOM     26  C   UNL     1      45.571  16.792  21.456  0.00  0.00    +0.221 C 
ENDBRANCH  24  25
BRANCH   6   5
ATOM      5  C   UNL     1      45.831  12.260  17.564  0.00  0.00    +0.147 C 
BRANCH   5   4
ATOM      1  C   UNL     1      42.560  11.321  15.795  0.00  0.00    +0.077 C 
ATOM      2  C   UNL     1      44.004  11.352  16.224  0.00  0.00    -0.113 C 
ATOM      3  C   UNL     1      45.028  10.533  15.482  0.00  0.00    +0.076 C 
ATOM      4  C   UNL     1      44.369  12.091  17.243  0.00  0.00    -0.056 C 
ENDBRANCH   5   4
ENDBRANCH   6   5
BRANCH  24  27
ATOM     27  C   UNL     1      47.472  15.729  20.142  0.00  0.00    +0.112 C 
BRANCH  27  28
ATOM     28  C   UNL     1      47.949  14.348  20.512  0.00  0.00    -0.034 C 
ATOM     29  C   UNL     1      49.223  14.130  20.725  0.00  0.00    -0.118 C 
ATOM     30  C   UNL     1      49.714  12.731  20.992  0.00  0.00    +0.083 C 
ATOM     31  C   UNL     1      50.197  15.280  20.705  0.00  0.00    +0.073 C 
ENDBRANCH  27  28
ENDBRANCH  24  27
TORSDOF 9
ENDMDL
MODEL 2
REMARK VINA RESULT:      -5.7      3.002      5.888
REMARK  Name = ZINC14594077
REMARK  14 active torsions:
REMARK  status: ('A' for Active; 'I' for Inactive)
REMARK    1  A    between atoms: C1_1  and  C2_2
REMARK    2  A    between atoms: C2_2  and  C26_32
REMARK    3  A    between atoms: C3_3  and  C4_4
REMARK    4  A    between atoms: C4_4  and  C5_5
REMARK    5  A    between atoms: C7_7  and  C20_24
REMARK    6  A    between atoms: C7_7  and  O5_29
REMARK    7  A    between atoms: C9_10  and  C11_13
REMARK    8  A    between atoms: C9_10  and  O4_23
REMARK    9  A    between atoms: C11_13  and  C12_15
REMARK   10  A    between atoms: C13_16  and  C14_17
REMARK   11  A    between atoms: C20_24  and  C21_25
REMARK   12  A    between atoms: C22_26  and  C23_27
REMARK   13  A    between atoms: C22_26  and  C24_28
REMARK   14  A    between atoms: O5_29  and  C25_30
REMARK                            x       y       z     vdW  Elec       q    Type
REMARK                         _______ _______ _______ _____ _____    ______ ____
ROOT
ATOM      6  C   UNL     1      46.957  16.558  19.572  0.00  0.00    -0.024 C 
ATOM      7  C   UNL     1      47.666  16.717  20.767  0.00  0.00    +0.375 C 
ATOM      8  O   UNL     1      47.070  16.681  21.825  0.00  0.00    -0.402 OA
ATOM      9  C   UNL     1      49.159  16.934  20.762  0.00  0.00    +0.001 C 
ATOM     22  C   UNL     1      49.710  16.362  19.472  0.00  0.00    +0.353 C 
ATOM     23  O   UNL     1      50.663  15.619  19.468  0.00  0.00    -0.351 OA
ATOM     24  C   UNL     1      49.016  16.763  18.186  0.00  0.00    +0.077 C 
ATOM     32  C   UNL     1      47.534  16.556  18.361  0.00  0.00    +0.311 C 
ATOM     33  O   UNL     1      46.767  16.370  17.270  0.00  0.00    -0.448 OA
ENDROOT
BRANCH   9  10
ATOM     10  O   UNL     1      49.747  16.263  21.878  0.00  0.00    -0.490 OA
ATOM     11  H   UNL     1      49.372  15.390  22.056  0.00  0.00    +0.400 HD
ENDBRANCH   9  10
BRANCH   9  12
ATOM     12  C   UNL     1      49.460  18.408  20.837  0.00  0.00    +0.382 C 
ATOM     21  O   UNL     1      50.609  18.798  20.770  0.00  0.00    -0.442 OA
BRANCH  12  13
ATOM     13  C   UNL     1      48.408  19.336  20.984  0.00  0.00    -0.122 C 
ATOM     14  C   UNL     1      48.108  20.184  19.973  0.00  0.00    +0.187 C 
BRANCH  14  15
ATOM     15  C   UNL     1      47.011  21.152  20.126  0.00  0.00    -0.104 A 
ATOM     16  C   UNL     1      46.963  21.988  21.247  0.00  0.00    +0.047 A 
ATOM     17  C   UNL     1      45.934  22.896  21.380  0.00  0.00    +0.006 A 
ATOM     18  C   UNL     1      44.946  22.976  20.414  0.00  0.00    +0.037 A 
ATOM     19  C   UNL     1      44.983  22.148  19.305  0.00  0.00    +0.004 A 
ATOM     20  C   UNL     1      46.008  21.238  19.154  0.00  0.00    +0.050 A 
ENDBRANCH  14  15
ENDBRANCH  12  13
ENDBRANCH   9  12
BRANCH  24  25
ATOM     25  O   UNL     1      49.490  15.948  17.112  0.00  0.00    -0.316 OA
ATOM     26  C   UNL     1      49.071  14.583  17.189  0.00  0.00    +0.221 C 
ENDBRANCH  24  25
BRANCH   6   5
ATOM      5  C   UNL     1      45.463  16.371  19.648  0.00  0.00    +0.147 C 
BRANCH   5   4
ATOM      1  C   UNL     1      43.113  19.265  20.551  0.00  0.00    +0.077 C 
ATOM      2  C   UNL     1      43.915  17.991  20.617  0.00  0.00    -0.113 C 
ATOM      3  C   UNL     1      43.711  17.030  21.760  0.00  0.00    +0.076 C 
ATOM      4  C   UNL     1      44.789  17.718  19.680  0.00  0.00    -0.056 C 
ENDBRANCH   5   4
ENDBRANCH   6   5
BRANCH  24  27
ATOM     27  C   UNL     1      49.308  18.234  17.882  0.00  0.00    +0.112 C 
BRANCH  27  28
ATOM     28  C   UNL     1      50.449  18.327  16.902  0.00  0.00    -0.034 C 
ATOM     29  C   UNL     1      51.142  19.435  16.807  0.00  0.00    -0.118 C 
ATOM     30  C   UNL     1      52.214  19.565  15.756  0.00  0.00    +0.083 C 
ATOM     31  C   UNL     1      50.867  20.578  17.749  0.00  0.00    +0.073 C 
ENDBRANCH  27  28
ENDBRANCH  24  27
TORSDOF 9
ENDMDL
MODEL 3
REMARK VINA RESULT:      -5.7      2.900      5.961
REMARK  Name = ZINC14594077
REMARK  14 active torsions:
REMARK  status: ('A' for Active; 'I' for Inactive)
REMARK    1  A    between atoms: C1_1  and  C2_2
REMARK    2  A    between atoms: C2_2  and  C26_32
REMARK    3  A    between atoms: C3_3  and  C4_4
REMARK    4  A    between atoms: C4_4  and  C5_5
REMARK    5  A    between atoms: C7_7  and  C20_24
REMARK    6  A    between atoms: C7_7  and  O5_29
REMARK    7  A    between atoms: C9_10  and  C11_13
REMARK    8  A    between atoms: C9_10  and  O4_23
REMARK    9  A    between atoms: C11_13  and  C12_15
REMARK   10  A    between atoms: C13_16  and  C14_17
REMARK   11  A    between atoms: C20_24  and  C21_25
REMARK   12  A    between atoms: C22_26  and  C23_27
REMARK   13  A    between atoms: C22_26  and  C24_28
REMARK   14  A    between atoms: O5_29  and  C25_30
REMARK                            x       y       z     vdW  Elec       q    Type
REMARK                         _______ _______ _______ _____ _____    ______ ____
ROOT
ATOM      6  C   UNL     1      47.636  17.496  21.181  0.00  0.00    -0.024 C 
ATOM      7  C   UNL     1      48.149  16.476  20.373  0.00  0.00    +0.375 C 
ATOM      8  O   UNL     1      49.304  16.127  20.510  0.00  0.00    -0.402 OA
ATOM      9  C   UNL     1      47.289  15.802  19.332  0.00  0.00    +0.001 C 
ATOM     22  C   UNL     1      45.840  15.963  19.747  0.00  0.00    +0.353 C 
ATOM     23  O   UNL     1      45.083  15.023  19.770  0.00  0.00    -0.351 OA
ATOM     24  C   UNL     1      45.382  17.355  20.130  0.00  0.00    +0.077 C 
ATOM     32  C   UNL     1      46.367  17.925  21.118  0.00  0.00    +0.311 C 
ATOM     33  O   UNL     1      45.963  18.897  21.958  0.00  0.00    -0.448 OA
ENDROOT
BRANCH   9  10
ATOM     10  O   UNL     1      47.619  14.413  19.259  0.00  0.00    -0.490 OA
ATOM     11  H   UNL     1      46.912  13.859  18.901  0.00  0.00    +0.400 HD
ENDBRANCH   9  10
BRANCH   9  12
ATOM     12  C   UNL     1      47.511  16.450  17.990  0.00  0.00    +0.382 C 
ATOM     21  O   UNL     1      46.952  16.012  17.004  0.00  0.00    -0.442 OA
BRANCH  12  13
ATOM     13  C   UNL     1      48.366  17.565  17.878  0.00  0.00    -0.122 C 
ATOM     14  C   UNL     1      49.524  17.463  17.186  0.00  0.00    +0.187 C 
BRANCH  14  15
ATOM     15  C   UNL     1      50.417  18.626  17.069  0.00  0.00    -0.104 A 
ATOM     16  C   UNL     1      51.383  18.672  16.058  0.00  0.00    +0.047 A 
ATOM     17  C   UNL     1      52.212  19.768  15.952  0.00  0.00    +0.006 A 
ATOM     18  C   UNL     1      52.098  20.817  16.848  0.00  0.00    +0.037 A 
ATOM     19  C   UNL     1      51.149  20.777  17.855  0.00  0.00    +0.004 A 
ATOM     20  C   UNL     1      50.308  19.690  17.972  0.00  0.00    +0.050 A 
ENDBRANCH  14  15
ENDBRANCH  12  13
ENDBRANCH   9  12
BRANCH  24  25
ATOM     25  O   UNL     1      44.087  17.285  20.731  0.00  0.00    -0.316 OA
ATOM     26  C   UNL     1      44.066  16.603  21.988  0.00  0.00    +0.221 C 
ENDBRANCH  24  25
BRANCH   6   5
ATOM      5  C   UNL     1      48.558  18.144  22.182  0.00  0.00    +0.147 C 
BRANCH   5   4
ATOM      1  C   UNL     1      50.895  21.072  21.359  0.00  0.00    +0.077 C 
ATOM      2  C   UNL     1      50.377  19.723  21.787  0.00  0.00    -0.113 C 
ATOM      3  C   UNL     1      51.308  18.727  22.428  0.00  0.00    +0.076 C 
ATOM      4  C   UNL     1      49.117  19.416  21.601  0.00  0.00    -0.056 C 
ENDBRANCH   5   4
ENDBRANCH   6   5
BRANCH  24  27
ATOM     27  C   UNL     1      45.322  18.238  18.882  0.00  0.00    +0.112 C 
BRANCH  27  28
ATOM     28  C   UNL     1      44.478  19.453  19.168  0.00  0.00    -0.034 C 
ATOM     29  C   UNL     1      45.017  20.647  19.144  0.00  0.00    -0.118 C 
ATOM     30  C   UNL     1      44.199  21.851  19.532  0.00  0.00    +0.083 C 
ATOM     31  C   UNL     1      46.456  20.814  18.730  0.00  0.00    +0.073 C 
ENDBRANCH  27  28
ENDBRANCH  24  27
TORSDOF 9
ENDMDL
MODEL 4
REMARK VINA RESULT:      -5.7      2.293      6.278
REMARK  Name = ZINC14594077
REMARK  14 active torsions:
REMARK  status: ('A' for Active; 'I' for Inactive)
REMARK    1  A    between atoms: C1_1  and  C2_2
REMARK    2  A    between atoms: C2_2  and  C26_32
REMARK    3  A    between atoms: C3_3  and  C4_4
REMARK    4  A    between atoms: C4_4  and  C5_5
REMARK    5  A    between atoms: C7_7  and  C20_24
REMARK    6  A    between atoms: C7_7  and  O5_29
REMARK    7  A    between atoms: C9_10  and  C11_13
REMARK    8  A    between atoms: C9_10  and  O4_23
REMARK    9  A    between atoms: C11_13  and  C12_15
REMARK   10  A    between atoms: C13_16  and  C14_17
REMARK   11  A    between atoms: C20_24  and  C21_25
REMARK   12  A    between atoms: C22_26  and  C23_27
REMARK   13  A    between atoms: C22_26  and  C24_28
REMARK   14  A    between atoms: O5_29  and  C25_30
REMARK                            x       y       z     vdW  Elec       q    Type
REMARK                         _______ _______ _______ _____ _____    ______ ____
ROOT
ATOM      6  C   UNL     1      49.095  16.784  17.633  0.00  0.00    -0.024 C 
ATOM      7  C   UNL     1      47.861  16.566  17.013  0.00  0.00    +0.375 C 
ATOM      8  O   UNL     1      47.259  17.506  16.533  0.00  0.00    -0.402 OA
ATOM      9  C   UNL     1      47.264  15.183  16.931  0.00  0.00    +0.001 C 
ATOM     22  C   UNL     1      48.395  14.180  17.034  0.00  0.00    +0.353 C 
ATOM     23  O   UNL     1      48.503  13.268  16.249  0.00  0.00    -0.351 OA
ATOM     24  C   UNL     1      49.384  14.368  18.166  0.00  0.00    +0.077 C 
ATOM     32  C   UNL     1      49.841  15.804  18.165  0.00  0.00    +0.311 C 
ATOM     33  O   UNL     1      51.029  16.112  18.719  0.00  0.00    -0.448 OA
ENDROOT
BRANCH   9  10
ATOM     10  O   UNL     1      46.588  15.022  15.682  0.00  0.00    -0.490 OA
ATOM     11  H   UNL     1      46.526  15.834  15.161  0.00  0.00    +0.400 HD
ENDBRANCH   9  10
BRANCH   9  12
ATOM     12  C   UNL     1      46.294  14.978  18.065  0.00  0.00    +0.382 C 
ATOM     21  O   UNL     1      45.804  13.883  18.255  0.00  0.00    -0.442 OA
BRANCH  12  13
ATOM     13  C   UNL     1      45.956  16.057  18.907  0.00  0.00    -0.122 C 
ATOM     14  C   UNL     1      45.104  15.868  19.941  0.00  0.00    +0.187 C 
BRANCH  14  15
ATOM     15  C   UNL     1      44.752  16.993  20.820  0.00  0.00    -0.104 A 
ATOM     16  C   UNL     1      45.530  18.156  20.819  0.00  0.00    +0.047 A 
ATOM     17  C   UNL     1      45.190  19.209  21.642  0.00  0.00    +0.006 A 
ATOM     18  C   UNL     1      44.089  19.114  22.475  0.00  0.00    +0.037 A 
ATOM     19  C   UNL     1      43.317  17.964  22.486  0.00  0.00    +0.004 A 
ATOM     20  C   UNL     1      43.640  16.904  21.665  0.00  0.00    +0.050 A 
ENDBRANCH  14  15
ENDBRANCH  12  13
ENDBRANCH   9  12
BRANCH  24  25
ATOM     25  O   UNL     1      50.509  13.508  17.968  0.00  0.00    -0.316 OA
ATOM     26  C   UNL     1      50.578  12.418  18.891  0.00  0.00    +0.221 C 
ENDBRANCH  24  25
BRANCH   6   5
ATOM      5  C   UNL     1      49.620  18.195  17.703  0.00  0.00    +0.147 C 
BRANCH   5   4
ATOM      1  C   UNL     1      48.895  20.760  20.461  0.00  0.00    +0.077 C 
ATOM      2  C   UNL     1      49.386  20.117  19.190  0.00  0.00    -0.113 C 
ATOM      3  C   UNL     1      50.325  20.866  18.280  0.00  0.00    +0.076 C 
ATOM      4  C   UNL     1      48.997  18.905  18.877  0.00  0.00    -0.056 C 
ENDBRANCH   5   4
ENDBRANCH   6   5
BRANCH  24  27
ATOM     27  C   UNL     1      48.711  14.033  19.498  0.00  0.00    +0.112 C 
BRANCH  27  28
ATOM     28  C   UNL     1      48.865  15.196  20.444  0.00  0.00    -0.034 C 
ATOM     29  C   UNL     1      48.257  15.182  21.605  0.00  0.00    -0.118 C 
ATOM     30  C   UNL     1      48.325  16.388  22.505  0.00  0.00    +0.083 C 
ATOM     31  C   UNL     1      47.489  13.960  22.038  0.00  0.00    +0.073 C 
ENDBRANCH  27  28
ENDBRANCH  24  27
TORSDOF 9
ENDMDL
MODEL 5
REMARK VINA RESULT:      -5.6      2.065      3.120
REMARK  Name = ZINC14594077
REMARK  14 active torsions:
REMARK  status: ('A' for Active; 'I' for Inactive)
REMARK    1  A    between atoms: C1_1  and  C2_2
REMARK    2  A    between atoms: C2_2  and  C26_32
REMARK    3  A    between atoms: C3_3  and  C4_4
REMARK    4  A    between atoms: C4_4  and  C5_5
REMARK    5  A    between atoms: C7_7  and  C20_24
REMARK    6  A    between atoms: C7_7  and  O5_29
REMARK    7  A    between atoms: C9_10  and  C11_13
REMARK    8  A    between atoms: C9_10  and  O4_23
REMARK    9  A    between atoms: C11_13  and  C12_15
REMARK   10  A    between atoms: C13_16  and  C14_17
REMARK   11  A    between atoms: C20_24  and  C21_25
REMARK   12  A    between atoms: C22_26  and  C23_27
REMARK   13  A    between atoms: C22_26  and  C24_28
REMARK   14  A    between atoms: O5_29  and  C25_30
REMARK                            x       y       z     vdW  Elec       q    Type
REMARK                         _______ _______ _______ _____ _____    ______ ____
ROOT
ATOM      6  C   UNL     1      46.727  14.718  17.849  0.00  0.00    -0.024 C 
ATOM      7  C   UNL     1      46.342  16.062  17.887  0.00  0.00    +0.375 C 
ATOM      8  O   UNL     1      46.214  16.677  16.847  0.00  0.00    -0.402 OA
ATOM      9  C   UNL     1      46.085  16.761  19.200  0.00  0.00    +0.001 C 
ATOM     22  C   UNL     1      45.731  15.706  20.229  0.00  0.00    +0.353 C 
ATOM     23  O   UNL     1      44.761  15.820  20.939  0.00  0.00    -0.351 OA
ATOM     24  C   UNL     1      46.648  14.504  20.330  0.00  0.00    +0.077 C 
ATOM     32  C   UNL     1      46.866  13.955  18.944  0.00  0.00    +0.311 C 
ATOM     33  O   UNL     1      47.217  12.663  18.801  0.00  0.00    -0.448 OA
ENDROOT
BRANCH   9  10
ATOM     10  O   UNL     1      44.998  17.677  19.053  0.00  0.00    -0.490 OA
ATOM     11  H   UNL     1      44.131  17.291  19.236  0.00  0.00    +0.400 HD
ENDBRANCH   9  10
BRANCH   9  12
ATOM     12  C   UNL     1      47.322  17.503  19.633  0.00  0.00    +0.382 C 
ATOM     21  O   UNL     1      47.473  17.803  20.800  0.00  0.00    -0.442 OA
BRANCH  12  13
ATOM     13  C   UNL     1      48.306  17.848  18.684  0.00  0.00    -0.122 C 
ATOM     14  C   UNL     1      49.238  18.783  18.983  0.00  0.00    +0.187 C 
BRANCH  14  15
ATOM     15  C   UNL     1      50.264  19.143  17.993  0.00  0.00    -0.104 A 
ATOM     16  C   UNL     1      50.767  20.448  17.946  0.00  0.00    +0.047 A 
ATOM     17  C   UNL     1      51.732  20.777  17.018  0.00  0.00    +0.006 A 
ATOM     18  C   UNL     1      52.197  19.823  16.129  0.00  0.00    +0.037 A 
ATOM     19  C   UNL     1      51.701  18.531  16.166  0.00  0.00    +0.004 A 
ATOM     20  C   UNL     1      50.738  18.184  17.092  0.00  0.00    +0.050 A 
ENDBRANCH  14  15
ENDBRANCH  12  13
ENDBRANCH   9  12
BRANCH  24  25
ATOM     25  O   UNL     1      46.039  13.505  21.150  0.00  0.00    -0.316 OA
ATOM     26  C   UNL     1      46.697  13.301  22.403  0.00  0.00    +0.221 C 
ENDBRANCH  24  25
BRANCH   6   5
ATOM      5  C   UNL     1      46.993  14.090  16.506  0.00  0.00    +0.147 C 
BRANCH   5   4
ATOM      1  C   UNL     1      50.454  13.001  15.263  0.00  0.00    +0.077 C 
ATOM      2  C   UNL     1      48.964  13.191  15.380  0.00  0.00    -0.113 C 
ATOM      3  C   UNL     1      48.032  12.422  14.480  0.00  0.00    +0.076 C 
ATOM      4  C   UNL     1      48.479  14.026  16.266  0.00  0.00    -0.056 C 
ENDBRANCH   5   4
ENDBRANCH   6   5
BRANCH  24  27
ATOM     27  C   UNL     1      47.985  14.928  20.942  0.00  0.00    +0.112 C 
BRANCH  27  28
ATOM     28  C   UNL     1      49.107  14.535  20.016  0.00  0.00    -0.034 C 
ATOM     29  C   UNL     1      50.272  15.126  20.112  0.00  0.00    -0.118 C 
ATOM     30  C   UNL     1      51.361  14.809  19.120  0.00  0.00    +0.083 C 
ATOM     31  C   UNL     1      50.523  16.121  21.215  0.00  0.00    +0.073 C 
ENDBRANCH  27  28
ENDBRANCH  24  27
TORSDOF 9
ENDMDL
MODEL 6
REMARK VINA RESULT:      -5.6      2.130      5.117
REMARK  Name = ZINC14594077
REMARK  14 active torsions:
REMARK  status: ('A' for Active; 'I' for Inactive)
REMARK    1  A    between atoms: C1_1  and  C2_2
REMARK    2  A    between atoms: C2_2  and  C26_32
REMARK    3  A    between atoms: C3_3  and  C4_4
REMARK    4  A    between atoms: C4_4  and  C5_5
REMARK    5  A    between atoms: C7_7  and  C20_24
REMARK    6  A    between atoms: C7_7  and  O5_29
REMARK    7  A    between atoms: C9_10  and  C11_13
REMARK    8  A    between atoms: C9_10  and  O4_23
REMARK    9  A    between atoms: C11_13  and  C12_15
REMARK   10  A    between atoms: C13_16  and  C14_17
REMARK   11  A    between atoms: C20_24  and  C21_25
REMARK   12  A    between atoms: C22_26  and  C23_27
REMARK   13  A    between atoms: C22_26  and  C24_28
REMARK   14  A    between atoms: O5_29  and  C25_30
REMARK                            x       y       z     vdW  Elec       q    Type
REMARK                         _______ _______ _______ _____ _____    ______ ____
ROOT
ATOM      6  C   UNL     1      48.676  15.160  20.104  0.00  0.00    -0.024 C 
ATOM      7  C   UNL     1      48.830  14.869  18.745  0.00  0.00    +0.375 C 
ATOM      8  O   UNL     1      49.928  14.577  18.316  0.00  0.00    -0.402 OA
ATOM      9  C   UNL     1      47.653  14.914  17.802  0.00  0.00    +0.001 C 
ATOM     22  C   UNL     1      46.393  14.706  18.617  0.00  0.00    +0.353 C 
ATOM     23  O   UNL     1      45.554  13.901  18.289  0.00  0.00    -0.351 OA
ATOM     24  C   UNL     1      46.228  15.553  19.863  0.00  0.00    +0.077 C 
ATOM     32  C   UNL     1      47.499  15.465  20.669  0.00  0.00    +0.311 C 
ATOM     33  O   UNL     1      47.450  15.705  21.993  0.00  0.00    -0.448 OA
ENDROOT
BRANCH   9  10
ATOM     10  O   UNL     1      47.775  13.875  16.828  0.00  0.00    -0.490 OA
ATOM     11  H   UNL     1      48.630  13.856  16.378  0.00  0.00    +0.400 HD
ENDBRANCH   9  10
BRANCH   9  12
ATOM     12  C   UNL     1      47.601  16.253  17.114  0.00  0.00    +0.382 C 
ATOM     21  O   UNL     1      46.588  16.604  16.542  0.00  0.00    -0.442 OA
BRANCH  12  13
ATOM     13  C   UNL     1      48.728  17.100  17.134  0.00  0.00    -0.122 C 
ATOM     14  C   UNL     1      48.817  18.087  18.056  0.00  0.00    +0.187 C 
BRANCH  14  15
ATOM     15  C   UNL     1      49.993  18.970  18.077  0.00  0.00    -0.104 A 
ATOM     16  C   UNL     1      49.909  20.238  18.665  0.00  0.00    +0.047 A 
ATOM     17  C   UNL     1      51.017  21.057  18.685  0.00  0.00    +0.006 A 
ATOM     18  C   UNL     1      52.207  20.635  18.118  0.00  0.00    +0.037 A 
ATOM     19  C   UNL     1      52.296  19.385  17.530  0.00  0.00    +0.004 A 
ATOM     20  C   UNL     1      51.199  18.550  17.506  0.00  0.00    +0.050 A 
ENDBRANCH  14  15
ENDBRANCH  12  13
ENDBRANCH   9  12
BRANCH  24  25
ATOM     25  O   UNL     1      45.134  15.058  20.638  0.00  0.00    -0.316 OA
ATOM     26  C   UNL     1      45.368  13.773  21.218  0.00  0.00    +0.221 C 
ENDBRANCH  24  25
BRANCH   6   5
ATOM      5  C   UNL     1      49.899  15.122  20.984  0.00  0.00    +0.147 C 
BRANCH   5   4
ATOM      1  C   UNL     1      52.171  18.206  21.176  0.00  0.00    +0.077 C 
ATOM      2  C   UNL     1      51.601  16.863  20.801  0.00  0.00    -0.113 C 
ATOM      3  C   UNL     1      52.409  15.908  19.961  0.00  0.00    +0.076 C 
ATOM      4  C   UNL     1      50.401  16.525  21.207  0.00  0.00    -0.056 C 
ENDBRANCH   5   4
ENDBRANCH   6   5
BRANCH  24  27
ATOM     27  C   UNL     1      45.961  17.006  19.465  0.00  0.00    +0.112 C 
BRANCH  27  28
ATOM     28  C   UNL     1      44.637  17.446  20.034  0.00  0.00    -0.034 C 
ATOM     29  C   UNL     1      44.117  18.593  19.673  0.00  0.00    -0.118 C 
ATOM     30  C   UNL     1      42.847  19.081  20.320  0.00  0.00    +0.083 C 
ATOM     31  C   UNL     1      44.790  19.423  18.610  0.00  0.00    +0.073 C 
ENDBRANCH  27  28
ENDBRANCH  24  27
TORSDOF 9
ENDMDL
MODEL 7
REMARK VINA RESULT:      -5.5      2.078      4.418
REMARK  Name = ZINC14594077
REMARK  14 active torsions:
REMARK  status: ('A' for Active; 'I' for Inactive)
REMARK    1  A    between atoms: C1_1  and  C2_2
REMARK    2  A    between atoms: C2_2  and  C26_32
REMARK    3  A    between atoms: C3_3  and  C4_4
REMARK    4  A    between atoms: C4_4  and  C5_5
REMARK    5  A    between atoms: C7_7  and  C20_24
REMARK    6  A    between atoms: C7_7  and  O5_29
REMARK    7  A    between atoms: C9_10  and  C11_13
REMARK    8  A    between atoms: C9_10  and  O4_23
REMARK    9  A    between atoms: C11_13  and  C12_15
REMARK   10  A    between atoms: C13_16  and  C14_17
REMARK   11  A    between atoms: C20_24  and  C21_25
REMARK   12  A    between atoms: C22_26  and  C23_27
REMARK   13  A    between atoms: C22_26  and  C24_28
REMARK   14  A    between atoms: O5_29  and  C25_30
REMARK                            x       y       z     vdW  Elec       q    Type
REMARK                         _______ _______ _______ _____ _____    ______ ____
ROOT
ATOM      6  C   UNL     1      49.416  14.008  18.412  0.00  0.00    -0.024 C 
ATOM      7  C   UNL     1      48.880  14.424  17.190  0.00  0.00    +0.375 C 
ATOM      8  O   UNL     1      49.598  14.485  16.211  0.00  0.00    -0.402 OA
ATOM      9  C   UNL     1      47.424  14.799  17.066  0.00  0.00    +0.001 C 
ATOM     22  C   UNL     1      46.666  14.100  18.176  0.00  0.00    +0.353 C 
ATOM     23  O   UNL     1      45.657  13.473  17.953  0.00  0.00    -0.351 OA
ATOM     24  C   UNL     1      47.225  14.222  19.579  0.00  0.00    +0.077 C 
ATOM     32  C   UNL     1      48.693  13.884  19.536  0.00  0.00    +0.311 C 
ATOM     33  O   UNL     1      49.298  13.451  20.659  0.00  0.00    -0.448 OA
ENDROOT
BRANCH   9  10
ATOM     10  O   UNL     1      46.922  14.374  15.797  0.00  0.00    -0.490 OA
ATOM     11  H   UNL     1      47.349  13.578  15.451  0.00  0.00    +0.400 HD
ENDBRANCH   9  10
BRANCH   9  12
ATOM     12  C   UNL     1      47.269  16.291  17.202  0.00  0.00    +0.382 C 
ATOM     21  O   UNL     1      46.197  16.763  17.522  0.00  0.00    -0.442 OA
BRANCH  12  13
ATOM     13  C   UNL     1      48.368  17.139  16.958  0.00  0.00    -0.122 C 
ATOM     14  C   UNL     1      48.854  17.920  17.950  0.00  0.00    +0.187 C 
BRANCH  14  15
ATOM     15  C   UNL     1      50.001  18.805  17.696  0.00  0.00    -0.104 A 
ATOM     16  C   UNL     1      50.904  18.508  16.668  0.00  0.00    +0.047 A 
ATOM     17  C   UNL     1      51.973  19.346  16.433  0.00  0.00    +0.006 A 
ATOM     18  C   UNL     1      52.162  20.471  17.216  0.00  0.00    +0.037 A 
ATOM     19  C   UNL     1      51.277  20.769  18.238  0.00  0.00    +0.004 A 
ATOM     20  C   UNL     1      50.198  19.945  18.484  0.00  0.00    +0.050 A 
ENDBRANCH  14  15
ENDBRANCH  12  13
ENDBRANCH   9  12
BRANCH  24  25
ATOM     25  O   UNL     1      46.549  13.309  20.446  0.00  0.00    -0.316 OA
ATOM     26  C   UNL     1      45.586  13.927  21.303  0.00  0.00    +0.221 C 
ENDBRANCH  24  25
BRANCH   6   5
ATOM      5  C   UNL     1      50.885  13.673  18.471  0.00  0.00    +0.147 C 
BRANCH   5   4
ATOM      1  C   UNL     1      52.918  16.838  19.222  0.00  0.00    +0.077 C 
ATOM      2  C   UNL     1      52.258  15.490  19.351  0.00  0.00    -0.113 C 
ATOM      3  C   UNL     1      52.245  14.780  20.682  0.00  0.00    +0.076 C 
ATOM      4  C   UNL     1      51.694  14.934  18.307  0.00  0.00    -0.056 C 
ENDBRANCH   5   4
ENDBRANCH   6   5
BRANCH  24  27
ATOM     27  C   UNL     1      47.032  15.652  20.086  0.00  0.00    +0.112 C 
BRANCH  27  28
ATOM     28  C   UNL     1      48.287  16.111  20.784  0.00  0.00    -0.034 C 
ATOM     29  C   UNL     1      48.363  17.328  21.263  0.00  0.00    -0.118 C 
ATOM     30  C   UNL     1      49.652  17.820  21.867  0.00  0.00    +0.083 C 
ATOM     31  C   UNL     1      47.161  18.235  21.209  0.00  0.00    +0.073 C 
ENDBRANCH  27  28
ENDBRANCH  24  27
TORSDOF 9
ENDMDL
MODEL 8
REMARK VINA RESULT:      -5.4      3.021      5.107
REMARK  Name = ZINC14594077
REMARK  14 active torsions:
REMARK  status: ('A' for Active; 'I' for Inactive)
REMARK    1  A    between atoms: C1_1  and  C2_2
REMARK    2  A    between atoms: C2_2  and  C26_32
REMARK    3  A    between atoms: C3_3  and  C4_4
REMARK    4  A    between atoms: C4_4  and  C5_5
REMARK    5  A    between atoms: C7_7  and  C20_24
REMARK    6  A    between atoms: C7_7  and  O5_29
REMARK    7  A    between atoms: C9_10  and  C11_13
REMARK    8  A    between atoms: C9_10  and  O4_23
REMARK    9  A    between atoms: C11_13  and  C12_15
REMARK   10  A    between atoms: C13_16  and  C14_17
REMARK   11  A    between atoms: C20_24  and  C21_25
REMARK   12  A    between atoms: C22_26  and  C23_27
REMARK   13  A    between atoms: C22_26  and  C24_28
REMARK   14  A    between atoms: O5_29  and  C25_30
REMARK                            x       y       z     vdW  Elec       q    Type
REMARK                         _______ _______ _______ _____ _____    ______ ____
ROOT
ATOM      6  C   UNL     1      48.468  13.917  17.860  0.00  0.00    -0.024 C 
ATOM      7  C   UNL     1      47.084  14.115  17.837  0.00  0.00    +0.375 C 
ATOM      8  O   UNL     1      46.393  13.425  17.115  0.00  0.00    -0.402 OA
ATOM      9  C   UNL     1      46.435  15.174  18.694  0.00  0.00    +0.001 C 
ATOM     22  C   UNL     1      47.353  15.451  19.868  0.00  0.00    +0.353 C 
ATOM     23  O   UNL     1      46.938  15.470  21.002  0.00  0.00    -0.351 OA
ATOM     24  C   UNL     1      48.813  15.707  19.558  0.00  0.00    +0.077 C 
ATOM     32  C   UNL     1      49.304  14.613  18.645  0.00  0.00    +0.311 C 
ATOM     33  O   UNL     1      50.621  14.330  18.613  0.00  0.00    -0.448 OA
ENDROOT
BRANCH   9  10
ATOM     10  O   UNL     1      45.172  14.703  19.169  0.00  0.00    -0.490 OA
ATOM     11  H   UNL     1      44.442  15.320  19.023  0.00  0.00    +0.400 HD
ENDBRANCH   9  10
BRANCH   9  12
ATOM     12  C   UNL     1      46.240  16.432  17.890  0.00  0.00    +0.382 C 
ATOM     21  O   UNL     1      46.618  16.480  16.736  0.00  0.00    -0.442 OA
BRANCH  12  13
ATOM     13  C   UNL     1      45.619  17.555  18.475  0.00  0.00    -0.122 C 
ATOM     14  C   UNL     1      45.829  18.789  17.963  0.00  0.00    +0.187 C 
BRANCH  14  15
ATOM     15  C   UNL     1      45.181  19.960  18.573  0.00  0.00    -0.104 A 
ATOM     16  C   UNL     1      45.924  21.116  18.838  0.00  0.00    +0.047 A 
ATOM     17  C   UNL     1      45.307  22.211  19.405  0.00  0.00    +0.006 A 
ATOM     18  C   UNL     1      43.961  22.165  19.723  0.00  0.00    +0.037 A 
ATOM     19  C   UNL     1      43.221  21.023  19.470  0.00  0.00    +0.004 A 
ATOM     20  C   UNL     1      43.821  19.921  18.897  0.00  0.00    +0.050 A 
ENDBRANCH  14  15
ENDBRANCH  12  13
ENDBRANCH   9  12
BRANCH  24  25
ATOM     25  O   UNL     1      49.570  15.694  20.770  0.00  0.00    -0.316 OA
ATOM     26  C   UNL     1      49.956  16.992  21.229  0.00  0.00    +0.221 C 
ENDBRANCH  24  25
BRANCH   6   5
ATOM      5  C   UNL     1      49.053  12.860  16.959  0.00  0.00    +0.147 C 
BRANCH   5   4
ATOM      1  C   UNL     1      51.728  13.652  14.327  0.00  0.00    +0.077 C 
ATOM      2  C   UNL     1      50.861  12.923  15.320  0.00  0.00    -0.113 C 
ATOM      3  C   UNL     1      51.193  11.506  15.714  0.00  0.00    +0.076 C 
ATOM      4  C   UNL     1      49.818  13.520  15.840  0.00  0.00    -0.056 C 
ENDBRANCH   5   4
ENDBRANCH   6   5
BRANCH  24  27
ATOM     27  C   UNL     1      48.963  17.067  18.873  0.00  0.00    +0.112 C 
BRANCH  27  28
ATOM     28  C   UNL     1      49.974  16.959  17.761  0.00  0.00    -0.034 C 
ATOM     29  C   UNL     1      50.631  18.023  17.367  0.00  0.00    -0.118 C 
ATOM     30  C   UNL     1      51.564  17.938  16.187  0.00  0.00    +0.083 C 
ATOM     31  C   UNL     1      50.453  19.330  18.096  0.00  0.00    +0.073 C 
ENDBRANCH  27  28
ENDBRANCH  24  27
TORSDOF 9
ENDMDL
MODEL 9
REMARK VINA RESULT:      -5.4      2.554      5.326
REMARK  Name = ZINC14594077
REMARK  14 active torsions:
REMARK  status: ('A' for Active; 'I' for Inactive)
REMARK    1  A    between atoms: C1_1  and  C2_2
REMARK    2  A    between atoms: C2_2  and  C26_32
REMARK    3  A    between atoms: C3_3  and  C4_4
REMARK    4  A    between atoms: C4_4  and  C5_5
REMARK    5  A    between atoms: C7_7  and  C20_24
REMARK    6  A    between atoms: C7_7  and  O5_29
REMARK    7  A    between atoms: C9_10  and  C11_13
REMARK    8  A    between atoms: C9_10  and  O4_23
REMARK    9  A    between atoms: C11_13  and  C12_15
REMARK   10  A    between atoms: C13_16  and  C14_17
REMARK   11  A    between atoms: C20_24  and  C21_25
REMARK   12  A    between atoms: C22_26  and  C23_27
REMARK   13  A    between atoms: C22_26  and  C24_28
REMARK   14  A    between atoms: O5_29  and  C25_30
REMARK                            x       y       z     vdW  Elec       q    Type
REMARK                         _______ _______ _______ _____ _____    ______ ____
ROOT
ATOM      6  C   UNL     1      46.776  18.132  18.823  0.00  0.00    -0.024 C 
ATOM      7  C   UNL     1      46.905  17.892  20.195  0.00  0.00    +0.375 C 
ATOM      8  O   UNL     1      46.547  18.742  20.987  0.00  0.00    -0.402 OA
ATOM      9  C   UNL     1      47.482  16.595  20.708  0.00  0.00    +0.001 C 
ATOM     22  C   UNL     1      47.286  15.541  19.637  0.00  0.00    +0.353 C 
ATOM     23  O   UNL     1      46.812  14.460  19.895  0.00  0.00    -0.351 OA
ATOM     24  C   UNL     1      47.711  15.901  18.228  0.00  0.00    +0.077 C 
ATOM     32  C   UNL     1      47.119  17.242  17.880  0.00  0.00    +0.311 C 
ATOM     33  O   UNL     1      46.932  17.558  16.584  0.00  0.00    -0.448 OA
ENDROOT
BRANCH   9  10
ATOM     10  O   UNL     1      46.801  16.203  21.902  0.00  0.00    -0.490 OA
ATOM     11  H   UNL     1      46.677  15.248  21.989  0.00  0.00    +0.400 HD
ENDBRANCH   9  10
BRANCH   9  12
ATOM     12  C   UNL     1      48.951  16.768  20.992  0.00  0.00    +0.382 C 
ATOM     21  O   UNL     1      49.628  15.806  21.295  0.00  0.00    -0.442 OA
BRANCH  12  13
ATOM     13  C   UNL     1      49.540  18.046  20.906  0.00  0.00    -0.122 C 
ATOM     14  C   UNL     1      50.864  18.165  20.650  0.00  0.00    +0.187 C 
BRANCH  14  15
ATOM     15  C   UNL     1      51.479  19.498  20.560  0.00  0.00    -0.104 A 
ATOM     16  C   UNL     1      52.067  20.079  21.689  0.00  0.00    +0.047 A 
ATOM     17  C   UNL     1      52.646  21.326  21.595  0.00  0.00    +0.006 A 
ATOM     18  C   UNL     1      52.638  22.009  20.390  0.00  0.00    +0.037 A 
ATOM     19  C   UNL     1      52.053  21.444  19.270  0.00  0.00    +0.004 A 
ATOM     20  C   UNL     1      51.474  20.194  19.346  0.00  0.00    +0.050 A 
ENDBRANCH  14  15
ENDBRANCH  12  13
ENDBRANCH   9  12
BRANCH  24  25
ATOM     25  O   UNL     1      47.228  14.913  17.315  0.00  0.00    -0.316 OA
ATOM     26  C   UNL     1      48.237  14.018  16.839  0.00  0.00    +0.221 C 
ENDBRANCH  24  25
BRANCH   6   5
ATOM      5  C   UNL     1      46.217  19.459  18.380  0.00  0.00    +0.147 C 
BRANCH   5   4
ATOM      1  C   UNL     1      42.542  20.224  19.171  0.00  0.00    +0.077 C 
ATOM      2  C   UNL     1      44.031  20.361  18.989  0.00  0.00    -0.113 C 
ATOM      3  C   UNL     1      44.739  21.600  19.475  0.00  0.00    +0.076 C 
ATOM      4  C   UNL     1      44.711  19.403  18.408  0.00  0.00    -0.056 C 
ENDBRANCH   5   4
ENDBRANCH   6   5
BRANCH  24  27
ATOM     27  C   UNL     1      49.238  15.967  18.153  0.00  0.00    +0.112 C 
BRANCH  27  28
ATOM     28  C   UNL     1      49.646  17.112  17.262  0.00  0.00    -0.034 C 
ATOM     29  C   UNL     1      50.914  17.324  17.008  0.00  0.00    -0.118 C 
ATOM     30  C   UNL     1      51.330  18.529  16.204  0.00  0.00    +0.083 C 
ATOM     31  C   UNL     1      51.955  16.363  17.519  0.00  0.00    +0.073 C 
ENDBRANCH  27  28
ENDBRANCH  24  27
TORSDOF 9
ENDMDL
