MODEL 1
REMARK VINA RESULT:      -6.1      0.000      0.000
REMARK  Name = ZINC05357841
REMARK  3 active torsions:
REMARK  status: ('A' for Active; 'I' for Inactive)
REMARK    1  A    between atoms: C1_1  and  O1_2
REMARK    2  A    between atoms: O1_2  and  C2_3
REMARK    3  A    between atoms: C7_8  and  C8_9
REMARK                            x       y       z     vdW  Elec       q    Type
REMARK                         _______ _______ _______ _____ _____    ______ ____
ROOT
ATOM     12  C   UNL     1      46.091  21.235  19.315  0.00  0.00    +0.065 C 
ATOM     13  C   UNL     1      46.480  19.904  18.664  0.00  0.00    +0.137 C 
ATOM     14  C   UNL     1      46.105  18.762  19.574  0.00  0.00    -0.161 A 
ATOM     15  C   UNL     1      45.994  17.509  19.025  0.00  0.00    +0.111 A 
ATOM     16  C   UNL     1      45.659  16.421  19.825  0.00  0.00    -0.143 A 
ATOM     17  C   UNL     1      45.460  14.987  19.580  0.00  0.00    -0.041 A 
ATOM     18  C   UNL     1      45.149  14.444  20.765  0.00  0.00    +0.224 A 
ATOM     19  O   UNL     1      45.137  15.392  21.719  0.00  0.00    -0.189 OA
ATOM     20  C   UNL     1      45.437  16.600  21.202  0.00  0.00    +0.084 A 
ATOM     21  C   UNL     1      45.548  17.872  21.742  0.00  0.00    +0.028 A 
ATOM     22  C   UNL     1      45.882  18.948  20.932  0.00  0.00    +0.143 A 
ATOM     23  O   UNL     1      45.969  20.177  21.513  0.00  0.00    -0.287 OA
ATOM     24  C   UNL     1      46.503  21.166  20.773  0.00  0.00    +0.499 C 
ATOM     25  O   UNL     1      47.275  21.964  21.248  0.00  0.00    -0.420 OA
ENDROOT
BRANCH  12  11
ATOM      3  C   UNL     1      44.058  22.697  19.424  0.00  0.00    +0.161 A 
ATOM      4  C   UNL     1      42.688  22.886  19.326  0.00  0.00    -0.044 A 
ATOM      5  C   UNL     1      41.860  21.816  19.028  0.00  0.00    +0.085 A 
ATOM      6  C   UNL     1      42.408  20.552  18.823  0.00  0.00    +0.001 A 
ATOM      7  O   UNL     1      41.394  19.677  18.548  0.00  0.00    -0.303 OA
ATOM      8  C   UNL     1      40.191  20.333  18.990  0.00  0.00    +0.436 C 
ATOM      9  C   UNL     1      43.777  20.368  18.916  0.00  0.00    +0.093 A 
ATOM     10  O   UNL     1      40.506  21.734  18.882  0.00  0.00    -0.305 OA
ATOM     11  C   UNL     1      44.601  21.438  19.214  0.00  0.00    -0.118 A 
BRANCH   3   2
ATOM      1  C   UNL     1      44.695  24.939  18.955  0.00  0.00    +0.250 C 
ATOM      2  O   UNL     1      44.869  23.746  19.722  0.00  0.00    -0.304 OA
ENDBRANCH   3   2
ENDBRANCH  12  11
TORSDOF 2
ENDMDL
MODEL 2
REMARK VINA RESULT:      -6.0      2.593      5.530
REMARK  Name = ZINC05357841
REMARK  3 active torsions:
REMARK  status: ('A' for Active; 'I' for Inactive)
REMARK    1  A    between atoms: C1_1  and  O1_2
REMARK    2  A    between atoms: O1_2  and  C2_3
REMARK    3  A    between atoms: C7_8  and  C8_9
REMARK                            x       y       z     vdW  Elec       q    Type
REMARK                         _______ _______ _______ _____ _____    ______ ____
ROOT
ATOM     12  C   UNL     1      45.059  20.498  19.779  0.00  0.00    +0.065 C 
ATOM     13  C   UNL     1      46.083  21.003  18.757  0.00  0.00    +0.137 C 
ATOM     14  C   UNL     1      47.475  20.872  19.322  0.00  0.00    -0.161 A 
ATOM     15  C   UNL     1      48.530  20.881  18.445  0.00  0.00    +0.111 A 
ATOM     16  C   UNL     1      49.835  20.772  18.918  0.00  0.00    -0.143 A 
ATOM     17  C   UNL     1      51.160  20.747  18.285  0.00  0.00    -0.041 A 
ATOM     18  C   UNL     1      52.048  20.624  19.281  0.00  0.00    +0.224 A 
ATOM     19  O   UNL     1      51.411  20.571  20.465  0.00  0.00    -0.189 OA
ATOM     20  C   UNL     1      50.076  20.656  20.298  0.00  0.00    +0.084 A 
ATOM     21  C   UNL     1      49.001  20.643  21.172  0.00  0.00    +0.028 A 
ATOM     22  C   UNL     1      47.705  20.751  20.686  0.00  0.00    +0.143 A 
ATOM     23  O   UNL     1      46.685  20.725  21.588  0.00  0.00    -0.287 OA
ATOM     24  C   UNL     1      45.459  21.048  21.134  0.00  0.00    +0.499 C 
ATOM     25  O   UNL     1      44.712  21.746  21.777  0.00  0.00    -0.420 OA
ENDROOT
BRANCH  12  11
ATOM      3  C   UNL     1      44.330  18.316  20.773  0.00  0.00    +0.161 A 
ATOM      4  C   UNL     1      44.336  16.930  20.804  0.00  0.00    -0.044 A 
ATOM      5  C   UNL     1      45.090  16.220  19.884  0.00  0.00    +0.085 A 
ATOM      6  C   UNL     1      45.838  16.901  18.927  0.00  0.00    +0.001 A 
ATOM      7  O   UNL     1      46.487  15.984  18.148  0.00  0.00    -0.303 OA
ATOM      8  C   UNL     1      46.452  14.754  18.893  0.00  0.00    +0.436 C 
ATOM      9  C   UNL     1      45.825  18.285  18.896  0.00  0.00    +0.093 A 
ATOM     10  O   UNL     1      45.270  14.879  19.706  0.00  0.00    -0.305 OA
ATOM     11  C   UNL     1      45.071  18.992  19.815  0.00  0.00    -0.118 A 
BRANCH   3   2
ATOM      1  C   UNL     1      42.173  18.899  21.586  0.00  0.00    +0.250 C 
ATOM      2  O   UNL     1      43.594  19.013  21.680  0.00  0.00    -0.304 OA
ENDBRANCH   3   2
ENDBRANCH  12  11
TORSDOF 2
ENDMDL
MODEL 3
REMARK VINA RESULT:      -6.0      2.040      3.403
REMARK  Name = ZINC05357841
REMARK  3 active torsions:
REMARK  status: ('A' for Active; 'I' for Inactive)
REMARK    1  A    between atoms: C1_1  and  O1_2
REMARK    2  A    between atoms: O1_2  and  C2_3
REMARK    3  A    between atoms: C7_8  and  C8_9
REMARK                            x       y       z     vdW  Elec       q    Type
REMARK                         _______ _______ _______ _____ _____    ______ ____
ROOT
ATOM     12  C   UNL     1      44.317  18.721  21.932  0.00  0.00    +0.065 C 
ATOM     13  C   UNL     1      45.832  18.886  21.779  0.00  0.00    +0.137 C 
ATOM     14  C   UNL     1      46.294  18.209  20.513  0.00  0.00    -0.161 A 
ATOM     15  C   UNL     1      47.509  18.576  19.991  0.00  0.00    +0.111 A 
ATOM     16  C   UNL     1      47.983  17.974  18.830  0.00  0.00    -0.143 A 
ATOM     17  C   UNL     1      49.200  18.118  18.019  0.00  0.00    -0.041 A 
ATOM     18  C   UNL     1      49.079  17.249  17.006  0.00  0.00    +0.224 A 
ATOM     19  O   UNL     1      47.916  16.581  17.105  0.00  0.00    -0.189 OA
ATOM     20  C   UNL     1      47.220  16.983  18.187  0.00  0.00    +0.084 A 
ATOM     21  C   UNL     1      45.993  16.626  18.722  0.00  0.00    +0.028 A 
ATOM     22  C   UNL     1      45.532  17.235  19.881  0.00  0.00    +0.143 A 
ATOM     23  O   UNL     1      44.315  16.852  20.359  0.00  0.00    -0.287 OA
ATOM     24  C   UNL     1      43.979  17.283  21.589  0.00  0.00    +0.499 C 
ATOM     25  O   UNL     1      43.431  16.558  22.384  0.00  0.00    -0.420 OA
ENDROOT
BRANCH  12  11
ATOM      3  C   UNL     1      44.092  20.934  20.777  0.00  0.00    +0.161 A 
ATOM      4  C   UNL     1      43.439  21.791  19.904  0.00  0.00    -0.044 A 
ATOM      5  C   UNL     1      42.293  21.372  19.250  0.00  0.00    +0.085 A 
ATOM      6  C   UNL     1      41.800  20.087  19.467  0.00  0.00    +0.001 A 
ATOM      7  O   UNL     1      40.672  19.920  18.714  0.00  0.00    -0.303 OA
ATOM      8  C   UNL     1      40.252  21.248  18.352  0.00  0.00    +0.436 C 
ATOM      9  C   UNL     1      42.458  19.233  20.335  0.00  0.00    +0.093 A 
ATOM     10  O   UNL     1      41.474  22.009  18.362  0.00  0.00    -0.305 OA
ATOM     11  C   UNL     1      43.603  19.653  20.987  0.00  0.00    -0.118 A 
BRANCH   3   2
ATOM      1  C   UNL     1      45.758  22.610  21.036  0.00  0.00    +0.250 C 
ATOM      2  O   UNL     1      45.214  21.347  21.424  0.00  0.00    -0.304 OA
ENDBRANCH   3   2
ENDBRANCH  12  11
TORSDOF 2
ENDMDL
MODEL 4
REMARK VINA RESULT:      -6.0      2.258      6.711
REMARK  Name = ZINC05357841
REMARK  3 active torsions:
REMARK  status: ('A' for Active; 'I' for Inactive)
REMARK    1  A    between atoms: C1_1  and  O1_2
REMARK    2  A    between atoms: O1_2  and  C2_3
REMARK    3  A    between atoms: C7_8  and  C8_9
REMARK                            x       y       z     vdW  Elec       q    Type
REMARK                         _______ _______ _______ _____ _____    ______ ____
ROOT
ATOM     12  C   UNL     1      46.563  17.055  21.117  0.00  0.00    +0.065 C 
ATOM     13  C   UNL     1      45.248  17.535  21.741  0.00  0.00    +0.137 C 
ATOM     14  C   UNL     1      44.479  18.358  20.738  0.00  0.00    -0.161 A 
ATOM     15  C   UNL     1      43.134  18.533  20.945  0.00  0.00    +0.111 A 
ATOM     16  C   UNL     1      42.381  19.292  20.054  0.00  0.00    -0.143 A 
ATOM     17  C   UNL     1      40.966  19.675  19.968  0.00  0.00    -0.041 A 
ATOM     18  C   UNL     1      40.848  20.428  18.866  0.00  0.00    +0.224 A 
ATOM     19  O   UNL     1      42.043  20.552  18.260  0.00  0.00    -0.189 OA
ATOM     20  C   UNL     1      42.998  19.884  18.938  0.00  0.00    +0.084 A 
ATOM     21  C   UNL     1      44.356  19.694  18.739  0.00  0.00    +0.028 A 
ATOM     22  C   UNL     1      45.095  18.935  19.636  0.00  0.00    +0.143 A 
ATOM     23  O   UNL     1      46.424  18.773  19.388  0.00  0.00    -0.287 OA
ATOM     24  C   UNL     1      47.166  18.227  20.368  0.00  0.00    +0.499 C 
ATOM     25  O   UNL     1      48.264  18.650  20.640  0.00  0.00    -0.420 OA
ENDROOT
BRANCH  12  11
ATOM      3  C   UNL     1      45.533  14.836  20.573  0.00  0.00    +0.161 A 
ATOM      4  C   UNL     1      45.278  13.795  19.693  0.00  0.00    -0.044 A 
ATOM      5  C   UNL     1      45.791  13.835  18.406  0.00  0.00    +0.085 A 
ATOM      6  C   UNL     1      46.558  14.923  17.998  0.00  0.00    +0.001 A 
ATOM      7  O   UNL     1      46.941  14.724  16.701  0.00  0.00    -0.303 OA
ATOM      8  C   UNL     1      46.746  13.320  16.454  0.00  0.00    +0.436 C 
ATOM      9  C   UNL     1      46.805  15.963  18.878  0.00  0.00    +0.093 A 
ATOM     10  O   UNL     1      45.694  12.955  17.367  0.00  0.00    -0.305 OA
ATOM     11  C   UNL     1      46.292  15.922  20.162  0.00  0.00    -0.118 A 
BRANCH   3   2
ATOM      1  C   UNL     1      45.066  13.532  22.505  0.00  0.00    +0.250 C 
ATOM      2  O   UNL     1      45.035  14.794  21.837  0.00  0.00    -0.304 OA
ENDBRANCH   3   2
ENDBRANCH  12  11
TORSDOF 2
ENDMDL
MODEL 5
REMARK VINA RESULT:      -5.7      2.398      4.855
REMARK  Name = ZINC05357841
REMARK  3 active torsions:
REMARK  status: ('A' for Active; 'I' for Inactive)
REMARK    1  A    between atoms: C1_1  and  O1_2
REMARK    2  A    between atoms: O1_2  and  C2_3
REMARK    3  A    between atoms: C7_8  and  C8_9
REMARK                            x       y       z     vdW  Elec       q    Type
REMARK                         _______ _______ _______ _____ _____    ______ ____
ROOT
ATOM     12  C   UNL     1      45.047  19.019  21.197  0.00  0.00    +0.065 C 
ATOM     13  C   UNL     1      46.388  19.330  21.869  0.00  0.00    +0.137 C 
ATOM     14  C   UNL     1      47.457  19.506  20.820  0.00  0.00    -0.161 A 
ATOM     15  C   UNL     1      48.603  20.172  21.172  0.00  0.00    +0.111 A 
ATOM     16  C   UNL     1      49.623  20.352  20.242  0.00  0.00    -0.143 A 
ATOM     17  C   UNL     1      50.942  20.996  20.274  0.00  0.00    -0.041 A 
ATOM     18  C   UNL     1      51.465  20.837  19.050  0.00  0.00    +0.224 A 
ATOM     19  O   UNL     1      50.608  20.161  18.264  0.00  0.00    -0.189 OA
ATOM     20  C   UNL     1      49.483  19.848  18.937  0.00  0.00    +0.084 A 
ATOM     21  C   UNL     1      48.318  19.181  18.594  0.00  0.00    +0.028 A 
ATOM     22  C   UNL     1      47.308  19.010  19.532  0.00  0.00    +0.143 A 
ATOM     23  O   UNL     1      46.181  18.354  19.138  0.00  0.00    -0.287 OA
ATOM     24  C   UNL     1      45.311  18.003  20.103  0.00  0.00    +0.499 C 
ATOM     25  O   UNL     1      44.764  16.926  20.098  0.00  0.00    -0.420 OA
ENDROOT
BRANCH  12  11
ATOM      3  C   UNL     1      43.227  20.246  19.987  0.00  0.00    +0.161 A 
ATOM      4  C   UNL     1      42.694  21.403  19.440  0.00  0.00    -0.044 A 
ATOM      5  C   UNL     1      43.409  22.588  19.495  0.00  0.00    +0.085 A 
ATOM      6  C   UNL     1      44.661  22.616  20.104  0.00  0.00    +0.001 A 
ATOM      7  O   UNL     1      45.156  23.887  20.028  0.00  0.00    -0.303 OA
ATOM      8  C   UNL     1      44.377  24.541  19.009  0.00  0.00    +0.436 C 
ATOM      9  C   UNL     1      45.187  21.459  20.654  0.00  0.00    +0.093 A 
ATOM     10  O   UNL     1      43.119  23.841  19.037  0.00  0.00    -0.305 OA
ATOM     11  C   UNL     1      44.472  20.277  20.598  0.00  0.00    -0.118 A 
BRANCH   3   2
ATOM      1  C   UNL     1      41.441  18.930  20.843  0.00  0.00    +0.250 C 
ATOM      2  O   UNL     1      42.527  19.082  19.927  0.00  0.00    -0.304 OA
ENDBRANCH   3   2
ENDBRANCH  12  11
TORSDOF 2
ENDMDL
MODEL 6
REMARK VINA RESULT:      -5.7      2.222      5.603
REMARK  Name = ZINC05357841
REMARK  3 active torsions:
REMARK  status: ('A' for Active; 'I' for Inactive)
REMARK    1  A    between atoms: C1_1  and  O1_2
REMARK    2  A    between atoms: O1_2  and  C2_3
REMARK    3  A    between atoms: C7_8  and  C8_9
REMARK                            x       y       z     vdW  Elec       q    Type
REMARK                         _______ _______ _______ _____ _____    ______ ____
ROOT
ATOM     12  C   UNL     1      46.273  19.660  21.834  0.00  0.00    +0.065 C 
ATOM     13  C   UNL     1      44.802  19.257  21.982  0.00  0.00    +0.137 C 
ATOM     14  C   UNL     1      43.958  20.037  21.006  0.00  0.00    -0.161 A 
ATOM     15  C   UNL     1      42.714  19.549  20.697  0.00  0.00    +0.111 A 
ATOM     16  C   UNL     1      41.893  20.237  19.808  0.00  0.00    -0.143 A 
ATOM     17  C   UNL     1      40.546  20.013  19.267  0.00  0.00    -0.041 A 
ATOM     18  C   UNL     1      40.297  21.041  18.445  0.00  0.00    +0.224 A 
ATOM     19  O   UNL     1      41.349  21.880  18.420  0.00  0.00    -0.189 OA
ATOM     20  C   UNL     1      42.336  21.437  19.225  0.00  0.00    +0.084 A 
ATOM     21  C   UNL     1      43.597  21.915  19.542  0.00  0.00    +0.028 A 
ATOM     22  C   UNL     1      44.406  21.218  20.430  0.00  0.00    +0.143 A 
ATOM     23  O   UNL     1      45.639  21.728  20.700  0.00  0.00    -0.287 OA
ATOM     24  C   UNL     1      46.321  21.171  21.718  0.00  0.00    +0.499 C 
ATOM     25  O   UNL     1      46.944  21.844  22.504  0.00  0.00    -0.420 OA
ENDROOT
BRANCH  12  11
ATOM      3  C   UNL     1      48.203  19.180  20.308  0.00  0.00    +0.161 A 
ATOM      4  C   UNL     1      48.739  18.599  19.169  0.00  0.00    -0.044 A 
ATOM      5  C   UNL     1      47.924  17.881  18.309  0.00  0.00    +0.085 A 
ATOM      6  C   UNL     1      46.568  17.740  18.593  0.00  0.00    +0.001 A 
ATOM      7  O   UNL     1      45.989  16.998  17.602  0.00  0.00    -0.303 OA
ATOM      8  C   UNL     1      46.919  17.034  16.503  0.00  0.00    +0.436 C 
ATOM      9  C   UNL     1      46.038  18.317  19.735  0.00  0.00    +0.093 A 
ATOM     10  O   UNL     1      48.195  17.228  17.141  0.00  0.00    -0.305 OA
ATOM     11  C   UNL     1      46.853  19.033  20.592  0.00  0.00    -0.118 A 
BRANCH   3   2
ATOM      1  C   UNL     1      49.996  20.722  20.550  0.00  0.00    +0.250 C 
ATOM      2  O   UNL     1      49.001  19.890  21.149  0.00  0.00    -0.304 OA
ENDBRANCH   3   2
ENDBRANCH  12  11
TORSDOF 2
ENDMDL
MODEL 7
REMARK VINA RESULT:      -5.6      2.075      4.602
REMARK  Name = ZINC05357841
REMARK  3 active torsions:
REMARK  status: ('A' for Active; 'I' for Inactive)
REMARK    1  A    between atoms: C1_1  and  O1_2
REMARK    2  A    between atoms: O1_2  and  C2_3
REMARK    3  A    between atoms: C7_8  and  C8_9
REMARK                            x       y       z     vdW  Elec       q    Type
REMARK                         _______ _______ _______ _____ _____    ______ ____
ROOT
ATOM     12  C   UNL     1      43.900  19.590  20.484  0.00  0.00    +0.065 C 
ATOM     13  C   UNL     1      43.976  18.079  20.731  0.00  0.00    +0.137 C 
ATOM     14  C   UNL     1      44.909  17.445  19.730  0.00  0.00    -0.161 A 
ATOM     15  C   UNL     1      45.422  16.206  20.022  0.00  0.00    +0.111 A 
ATOM     16  C   UNL     1      46.280  15.575  19.127  0.00  0.00    -0.143 A 
ATOM     17  C   UNL     1      46.992  14.291  19.116  0.00  0.00    -0.041 A 
ATOM     18  C   UNL     1      47.671  14.249  17.961  0.00  0.00    +0.224 A 
ATOM     19  O   UNL     1      47.454  15.373  17.256  0.00  0.00    -0.189 OA
ATOM     20  C   UNL     1      46.623  16.204  17.917  0.00  0.00    +0.084 A 
ATOM     21  C   UNL     1      46.101  17.457  17.637  0.00  0.00    +0.028 A 
ATOM     22  C   UNL     1      45.247  18.075  18.540  0.00  0.00    +0.143 A 
ATOM     23  O   UNL     1      44.770  19.310  18.219  0.00  0.00    -0.287 OA
ATOM     24  C   UNL     1      43.780  19.801  18.988  0.00  0.00    +0.499 C 
ATOM     25  O   UNL     1      42.838  20.385  18.508  0.00  0.00    -0.420 OA
ENDROOT
BRANCH  12  11
ATOM      3  C   UNL     1      45.255  21.638  20.986  0.00  0.00    +0.161 A 
ATOM      4  C   UNL     1      46.404  22.252  21.461  0.00  0.00    -0.044 A 
ATOM      5  C   UNL     1      47.454  21.483  21.936  0.00  0.00    +0.085 A 
ATOM      6  C   UNL     1      47.351  20.094  21.939  0.00  0.00    +0.001 A 
ATOM      7  O   UNL     1      48.506  19.572  22.449  0.00  0.00    -0.303 OA
ATOM      8  C   UNL     1      49.473  20.637  22.377  0.00  0.00    +0.436 C 
ATOM      9  C   UNL     1      46.199  19.486  21.469  0.00  0.00    +0.093 A 
ATOM     10  O   UNL     1      48.672  21.831  22.443  0.00  0.00    -0.305 OA
ATOM     11  C   UNL     1      45.152  20.255  20.996  0.00  0.00    -0.118 A 
BRANCH   3   2
ATOM      1  C   UNL     1      44.547  23.394  19.548  0.00  0.00    +0.250 C 
ATOM      2  O   UNL     1      44.227  22.393  20.515  0.00  0.00    -0.304 OA
ENDBRANCH   3   2
ENDBRANCH  12  11
TORSDOF 2
ENDMDL
MODEL 8
REMARK VINA RESULT:      -5.6      2.552      6.177
REMARK  Name = ZINC05357841
REMARK  3 active torsions:
REMARK  status: ('A' for Active; 'I' for Inactive)
REMARK    1  A    between atoms: C1_1  and  O1_2
REMARK    2  A    between atoms: O1_2  and  C2_3
REMARK    3  A    between atoms: C7_8  and  C8_9
REMARK                            x       y       z     vdW  Elec       q    Type
REMARK                         _______ _______ _______ _____ _____    ______ ____
ROOT
ATOM     12  C   UNL     1      47.541  20.844  22.157  0.00  0.00    +0.065 C 
ATOM     13  C   UNL     1      46.239  20.083  22.425  0.00  0.00    +0.137 C 
ATOM     14  C   UNL     1      45.204  20.464  21.397  0.00  0.00    -0.161 A 
ATOM     15  C   UNL     1      44.137  19.621  21.213  0.00  0.00    +0.111 A 
ATOM     16  C   UNL     1      43.151  19.933  20.281  0.00  0.00    -0.143 A 
ATOM     17  C   UNL     1      41.911  19.281  19.839  0.00  0.00    -0.041 A 
ATOM     18  C   UNL     1      41.383  20.081  18.902  0.00  0.00    +0.224 A 
ATOM     19  O   UNL     1      42.164  21.160  18.720  0.00  0.00    -0.189 OA
ATOM     20  C   UNL     1      43.242  21.116  19.528  0.00  0.00    +0.084 A 
ATOM     21  C   UNL     1      44.328  21.955  19.720  0.00  0.00    +0.028 A 
ATOM     22  C   UNL     1      45.305  21.632  20.652  0.00  0.00    +0.143 A 
ATOM     23  O   UNL     1      46.354  22.488  20.795  0.00  0.00    -0.287 OA
ATOM     24  C   UNL     1      47.173  22.281  21.843  0.00  0.00    +0.499 C 
ATOM     25  O   UNL     1      47.595  23.199  22.505  0.00  0.00    -0.420 OA
ENDROOT
BRANCH  12  11
ATOM      3  C   UNL     1      48.237  18.858  20.797  0.00  0.00    +0.161 A 
ATOM      4  C   UNL     1      48.892  18.293  19.713  0.00  0.00    -0.044 A 
ATOM      5  C   UNL     1      49.575  19.101  18.819  0.00  0.00    +0.085 A 
ATOM      6  C   UNL     1      49.600  20.481  19.009  0.00  0.00    +0.001 A 
ATOM      7  O   UNL     1      50.332  21.047  18.004  0.00  0.00    -0.303 OA
ATOM      8  C   UNL     1      51.095  19.969  17.431  0.00  0.00    +0.436 C 
ATOM      9  C   UNL     1      48.940  21.041  20.090  0.00  0.00    +0.093 A 
ATOM     10  O   UNL     1      50.292  18.803  17.696  0.00  0.00    -0.305 OA
ATOM     11  C   UNL     1      48.258  20.232  20.981  0.00  0.00    -0.118 A 
BRANCH   3   2
ATOM      1  C   UNL     1      47.140  16.787  21.201  0.00  0.00    +0.250 C 
ATOM      2  O   UNL     1      47.571  18.064  21.677  0.00  0.00    -0.304 OA
ENDBRANCH   3   2
ENDBRANCH  12  11
TORSDOF 2
ENDMDL
MODEL 9
REMARK VINA RESULT:      -5.5      2.880      6.024
REMARK  Name = ZINC05357841
REMARK  3 active torsions:
REMARK  status: ('A' for Active; 'I' for Inactive)
REMARK    1  A    between atoms: C1_1  and  O1_2
REMARK    2  A    between atoms: O1_2  and  C2_3
REMARK    3  A    between atoms: C7_8  and  C8_9
REMARK                            x       y       z     vdW  Elec       q    Type
REMARK                         _______ _______ _______ _____ _____    ______ ____
ROOT
ATOM     12  C   UNL     1      48.317  18.972  20.137  0.00  0.00    +0.065 C 
ATOM     13  C   UNL     1      47.159  18.831  21.131  0.00  0.00    +0.137 C 
ATOM     14  C   UNL     1      45.867  19.242  20.471  0.00  0.00    -0.161 A 
ATOM     15  C   UNL     1      44.691  18.816  21.035  0.00  0.00    +0.111 A 
ATOM     16  C   UNL     1      43.472  19.176  20.469  0.00  0.00    -0.143 A 
ATOM     17  C   UNL     1      42.066  18.907  20.797  0.00  0.00    -0.041 A 
ATOM     18  C   UNL     1      41.337  19.539  19.866  0.00  0.00    +0.224 A 
ATOM     19  O   UNL     1      42.145  20.172  18.997  0.00  0.00    -0.189 OA
ATOM     20  C   UNL     1      43.440  19.982  19.317  0.00  0.00    +0.084 A 
ATOM     21  C   UNL     1      44.636  20.401  18.756  0.00  0.00    +0.028 A 
ATOM     22  C   UNL     1      45.845  20.034  19.331  0.00  0.00    +0.143 A 
ATOM     23  O   UNL     1      46.989  20.466  18.733  0.00  0.00    -0.287 OA
ATOM     24  C   UNL     1      48.138  20.292  19.414  0.00  0.00    +0.499 C 
ATOM     25  O   UNL     1      48.988  21.149  19.447  0.00  0.00    -0.420 OA
ENDROOT
BRANCH  12  11
ATOM      3  C   UNL     1      49.257  17.743  18.165  0.00  0.00    +0.161 A 
ATOM      4  C   UNL     1      49.228  16.697  17.255  0.00  0.00    -0.044 A 
ATOM      5  C   UNL     1      48.218  15.751  17.320  0.00  0.00    +0.085 A 
ATOM      6  C   UNL     1      47.235  15.851  18.302  0.00  0.00    +0.001 A 
ATOM      7  O   UNL     1      46.363  14.809  18.153  0.00  0.00    -0.303 OA
ATOM      8  C   UNL     1      46.589  14.306  16.824  0.00  0.00    +0.436 C 
ATOM      9  C   UNL     1      47.271  16.894  19.212  0.00  0.00    +0.093 A 
ATOM     10  O   UNL     1      47.961  14.649  16.557  0.00  0.00    -0.305 OA
ATOM     11  C   UNL     1      48.280  17.837  19.145  0.00  0.00    -0.118 A 
BRANCH   3   2
ATOM      1  C   UNL     1      51.089  18.643  16.945  0.00  0.00    +0.250 C 
ATOM      2  O   UNL     1      50.245  18.675  18.098  0.00  0.00    -0.304 OA
ENDBRANCH   3   2
ENDBRANCH  12  11
TORSDOF 2
ENDMDL
