MODEL 1
REMARK VINA RESULT:      -6.9      0.000      0.000
REMARK  Name = ZINC43121107
REMARK  7 active torsions:
REMARK  status: ('A' for Active; 'I' for Inactive)
REMARK    1  A    between atoms: C1_1  and  C2_2
REMARK    2  A    between atoms: C2_2  and  C20_24
REMARK    3  A    between atoms: C7_7  and  C11_12
REMARK    4  A    between atoms: C12_13  and  C13_14
REMARK    5  A    between atoms: C13_14  and  C14_16
REMARK    6  A    between atoms: C17_19  and  O4_23
REMARK    7  A    between atoms: C19_21  and  O3_22
REMARK                            x       y       z     vdW  Elec       q    Type
REMARK                         _______ _______ _______ _____ _____    ______ ____
ROOT
ATOM      9  C   UNL     1      47.207  20.280  20.045  0.00  0.00    +0.134 C 
ATOM     10  C   UNL     1      48.166  20.746  19.215  0.00  0.00    -0.114 C 
ENDROOT
BRANCH   9   8
ATOM      1  C   UNL     1      39.475  21.368  19.162  0.00  0.00    +0.076 C 
ATOM      2  C   UNL     1      40.869  20.740  19.098  0.00  0.00    +0.111 C 
ATOM      3  C   UNL     1      41.049  20.023  17.758  0.00  0.00    +0.031 C 
ATOM      4  C   UNL     1      41.036  19.737  20.247  0.00  0.00    +0.017 C 
ATOM      5  C   UNL     1      42.393  19.046  20.088  0.00  0.00    +0.085 C 
ATOM      6  C   UNL     1      43.464  20.081  19.847  0.00  0.00    -0.164 A 
ATOM      7  C   UNL     1      44.782  19.725  20.047  0.00  0.00    +0.077 A 
ATOM      8  C   UNL     1      45.802  20.658  19.831  0.00  0.00    -0.119 A 
ATOM     23  C   UNL     1      45.478  21.953  19.408  0.00  0.00    +0.071 A 
ATOM     24  C   UNL     1      44.162  22.298  19.214  0.00  0.00    -0.019 A 
ATOM     25  C   UNL     1      43.147  21.367  19.433  0.00  0.00    +0.156 A 
ATOM     26  O   UNL     1      41.862  21.756  19.238  0.00  0.00    -0.305 OA
ENDBRANCH   9   8
BRANCH  10  11
ATOM     11  C   UNL     1      49.562  20.370  19.428  0.00  0.00    +0.424 C 
ATOM     22  O   UNL     1      50.101  20.607  20.495  0.00  0.00    -0.447 OA
BRANCH  11  12
ATOM     12  C   UNL     1      50.318  19.703  18.352  0.00  0.00    -0.200 A 
ATOM     13  C   UNL     1      49.881  18.477  17.842  0.00  0.00    +0.100 A 
ATOM     14  C   UNL     1      50.589  17.859  16.838  0.00  0.00    -0.029 A 
ATOM     15  C   UNL     1      51.740  18.449  16.327  0.00  0.00    +0.156 A 
ATOM     18  C   UNL     1      52.184  19.665  16.825  0.00  0.00    -0.048 A 
ATOM     19  C   UNL     1      51.477  20.301  17.832  0.00  0.00    +0.184 A 
BRANCH  15  16
ATOM     16  O   UNL     1      52.434  17.832  15.336  0.00  0.00    -0.496 OA
ATOM     17  H   UNL     1      52.429  18.310  14.496  0.00  0.00    +0.400 HD
ENDBRANCH  15  16
BRANCH  19  20
ATOM     20  O   UNL     1      51.905  21.493  18.317  0.00  0.00    -0.479 OA
ATOM     21  H   UNL     1      51.456  21.773  19.126  0.00  0.00    +0.399 HD
ENDBRANCH  19  20
ENDBRANCH  11  12
ENDBRANCH  10  11
TORSDOF 5
ENDMDL
MODEL 2
REMARK VINA RESULT:      -6.8      1.793      8.739
REMARK  Name = ZINC43121107
REMARK  7 active torsions:
REMARK  status: ('A' for Active; 'I' for Inactive)
REMARK    1  A    between atoms: C1_1  and  C2_2
REMARK    2  A    between atoms: C2_2  and  C20_24
REMARK    3  A    between atoms: C7_7  and  C11_12
REMARK    4  A    between atoms: C12_13  and  C13_14
REMARK    5  A    between atoms: C13_14  and  C14_16
REMARK    6  A    between atoms: C17_19  and  O4_23
REMARK    7  A    between atoms: C19_21  and  O3_22
REMARK                            x       y       z     vdW  Elec       q    Type
REMARK                         _______ _______ _______ _____ _____    ______ ____
ROOT
ATOM      9  C   UNL     1      46.132  21.136  18.982  0.00  0.00    +0.134 C 
ATOM     10  C   UNL     1      45.427  21.227  20.131  0.00  0.00    -0.114 C 
ENDROOT
BRANCH   9   8
ATOM      1  C   UNL     1      53.004  17.328  18.839  0.00  0.00    +0.076 C 
ATOM      2  C   UNL     1      51.931  18.395  18.613  0.00  0.00    +0.111 C 
ATOM      3  C   UNL     1      52.091  18.997  17.215  0.00  0.00    +0.031 C 
ATOM      4  C   UNL     1      52.070  19.499  19.669  0.00  0.00    +0.017 C 
ATOM      5  C   UNL     1      51.059  20.602  19.347  0.00  0.00    +0.085 C 
ATOM      6  C   UNL     1      49.705  19.991  19.090  0.00  0.00    -0.164 A 
ATOM      7  C   UNL     1      48.591  20.803  19.151  0.00  0.00    +0.077 A 
ATOM      8  C   UNL     1      47.319  20.271  18.915  0.00  0.00    -0.119 A 
ATOM     23  C   UNL     1      47.183  18.910  18.614  0.00  0.00    +0.071 A 
ATOM     24  C   UNL     1      48.298  18.109  18.558  0.00  0.00    -0.019 A 
ATOM     25  C   UNL     1      49.565  18.642  18.796  0.00  0.00    +0.156 A 
ATOM     26  O   UNL     1      50.635  17.810  18.739  0.00  0.00    -0.305 OA
ENDBRANCH   9   8
BRANCH  10  11
ATOM     11  C   UNL     1      44.247  22.088  20.197  0.00  0.00    +0.424 C 
ATOM     22  O   UNL     1      44.308  23.163  20.766  0.00  0.00    -0.447 OA
BRANCH  11  12
ATOM     12  C   UNL     1      42.983  21.653  19.574  0.00  0.00    -0.200 A 
ATOM     13  C   UNL     1      42.600  20.309  19.624  0.00  0.00    +0.100 A 
ATOM     14  C   UNL     1      41.421  19.909  19.042  0.00  0.00    -0.029 A 
ATOM     15  C   UNL     1      40.605  20.837  18.402  0.00  0.00    +0.156 A 
ATOM     18  C   UNL     1      40.974  22.172  18.345  0.00  0.00    -0.048 A 
ATOM     19  C   UNL     1      42.157  22.589  18.933  0.00  0.00    +0.184 A 
BRANCH  15  16
ATOM     16  O   UNL     1      39.442  20.433  17.829  0.00  0.00    -0.496 OA
ATOM     17  H   UNL     1      39.230  20.891  17.004  0.00  0.00    +0.400 HD
ENDBRANCH  15  16
BRANCH  19  20
ATOM     20  O   UNL     1      42.517  23.896  18.884  0.00  0.00    -0.479 OA
ATOM     21  H   UNL     1      43.284  24.072  18.322  0.00  0.00    +0.399 HD
ENDBRANCH  19  20
ENDBRANCH  11  12
ENDBRANCH  10  11
TORSDOF 5
ENDMDL
MODEL 3
REMARK VINA RESULT:      -6.6      4.416      8.682
REMARK  Name = ZINC43121107
REMARK  7 active torsions:
REMARK  status: ('A' for Active; 'I' for Inactive)
REMARK    1  A    between atoms: C1_1  and  C2_2
REMARK    2  A    between atoms: C2_2  and  C20_24
REMARK    3  A    between atoms: C7_7  and  C11_12
REMARK    4  A    between atoms: C12_13  and  C13_14
REMARK    5  A    between atoms: C13_14  and  C14_16
REMARK    6  A    between atoms: C17_19  and  O4_23
REMARK    7  A    between atoms: C19_21  and  O3_22
REMARK                            x       y       z     vdW  Elec       q    Type
REMARK                         _______ _______ _______ _____ _____    ______ ____
ROOT
ATOM      9  C   UNL     1      45.163  18.075  19.277  0.00  0.00    +0.134 C 
ATOM     10  C   UNL     1      44.501  18.509  20.373  0.00  0.00    -0.114 C 
ENDROOT
BRANCH   9   8
ATOM      1  C   UNL     1      47.391  10.712  17.675  0.00  0.00    +0.076 C 
ATOM      2  C   UNL     1      46.810  12.119  17.518  0.00  0.00    +0.111 C 
ATOM      3  C   UNL     1      45.555  12.065  16.645  0.00  0.00    +0.031 C 
ATOM      4  C   UNL     1      47.853  13.038  16.868  0.00  0.00    +0.017 C 
ATOM      5  C   UNL     1      47.204  14.403  16.623  0.00  0.00    +0.085 C 
ATOM      6  C   UNL     1      46.494  14.859  17.873  0.00  0.00    -0.164 A 
ATOM      7  C   UNL     1      46.169  16.194  17.999  0.00  0.00    +0.077 A 
ATOM      8  C   UNL     1      45.507  16.652  19.143  0.00  0.00    -0.119 A 
ATOM     23  C   UNL     1      45.175  15.748  20.159  0.00  0.00    +0.071 A 
ATOM     24  C   UNL     1      45.504  14.420  20.026  0.00  0.00    -0.019 A 
ATOM     25  C   UNL     1      46.166  13.967  18.885  0.00  0.00    +0.156 A 
ATOM     26  O   UNL     1      46.480  12.649  18.802  0.00  0.00    -0.305 OA
ENDBRANCH   9   8
BRANCH  10  11
ATOM     11  C   UNL     1      44.159  19.924  20.507  0.00  0.00    +0.424 C 
ATOM     22  O   UNL     1      44.906  20.678  21.103  0.00  0.00    -0.447 OA
BRANCH  11  12
ATOM     12  C   UNL     1      42.908  20.437  19.919  0.00  0.00    -0.200 A 
ATOM     13  C   UNL     1      41.743  19.665  19.960  0.00  0.00    +0.100 A 
ATOM     14  C   UNL     1      40.579  20.149  19.411  0.00  0.00    -0.029 A 
ATOM     15  C   UNL     1      40.555  21.405  18.812  0.00  0.00    +0.156 A 
ATOM     18  C   UNL     1      41.704  22.179  18.765  0.00  0.00    -0.048 A 
ATOM     19  C   UNL     1      42.881  21.706  19.320  0.00  0.00    +0.184 A 
BRANCH  15  16
ATOM     16  O   UNL     1      39.401  21.874  18.271  0.00  0.00    -0.496 OA
ATOM     17  H   UNL     1      38.723  21.196  18.142  0.00  0.00    +0.400 HD
ENDBRANCH  15  16
BRANCH  19  20
ATOM     20  O   UNL     1      44.006  22.464  19.279  0.00  0.00    -0.479 OA
ATOM     21  H   UNL     1      44.342  22.622  18.387  0.00  0.00    +0.399 HD
ENDBRANCH  19  20
ENDBRANCH  11  12
ENDBRANCH  10  11
TORSDOF 5
ENDMDL
MODEL 4
REMARK VINA RESULT:      -6.5      4.089      8.755
REMARK  Name = ZINC43121107
REMARK  7 active torsions:
REMARK  status: ('A' for Active; 'I' for Inactive)
REMARK    1  A    between atoms: C1_1  and  C2_2
REMARK    2  A    between atoms: C2_2  and  C20_24
REMARK    3  A    between atoms: C7_7  and  C11_12
REMARK    4  A    between atoms: C12_13  and  C13_14
REMARK    5  A    between atoms: C13_14  and  C14_16
REMARK    6  A    between atoms: C17_19  and  O4_23
REMARK    7  A    between atoms: C19_21  and  O3_22
REMARK                            x       y       z     vdW  Elec       q    Type
REMARK                         _______ _______ _______ _____ _____    ______ ____
ROOT
ATOM      9  C   UNL     1      44.914  17.652  19.607  0.00  0.00    +0.134 C 
ATOM     10  C   UNL     1      44.860  18.944  19.214  0.00  0.00    -0.114 C 
ENDROOT
BRANCH   9   8
ATOM      1  C   UNL     1      48.304  11.666  15.809  0.00  0.00    +0.076 C 
ATOM      2  C   UNL     1      47.838  12.594  16.933  0.00  0.00    +0.111 C 
ATOM      3  C   UNL     1      48.933  12.706  17.996  0.00  0.00    +0.031 C 
ATOM      4  C   UNL     1      46.558  12.035  17.566  0.00  0.00    +0.017 C 
ATOM      5  C   UNL     1      46.183  12.923  18.755  0.00  0.00    +0.085 C 
ATOM      6  C   UNL     1      46.231  14.372  18.342  0.00  0.00    -0.164 A 
ATOM      7  C   UNL     1      45.581  15.305  19.125  0.00  0.00    +0.077 A 
ATOM      8  C   UNL     1      45.608  16.659  18.774  0.00  0.00    -0.119 A 
ATOM     23  C   UNL     1      46.299  17.063  17.625  0.00  0.00    +0.071 A 
ATOM     24  C   UNL     1      46.941  16.126  16.850  0.00  0.00    -0.019 A 
ATOM     25  C   UNL     1      46.911  14.777  17.201  0.00  0.00    +0.156 A 
ATOM     26  O   UNL     1      47.551  13.888  16.401  0.00  0.00    -0.305 OA
ENDBRANCH   9   8
BRANCH  10  11
ATOM     11  C   UNL     1      44.171  19.931  20.042  0.00  0.00    +0.424 C 
ATOM     22  O   UNL     1      44.679  20.317  21.080  0.00  0.00    -0.447 OA
BRANCH  11  12
ATOM     12  C   UNL     1      42.861  20.461  19.620  0.00  0.00    -0.200 A 
ATOM     13  C   UNL     1      41.730  19.639  19.643  0.00  0.00    +0.100 A 
ATOM     14  C   UNL     1      40.511  20.138  19.249  0.00  0.00    -0.029 A 
ATOM     15  C   UNL     1      40.397  21.459  18.826  0.00  0.00    +0.156 A 
ATOM     18  C   UNL     1      41.512  22.283  18.799  0.00  0.00    -0.048 A 
ATOM     19  C   UNL     1      42.745  21.794  19.199  0.00  0.00    +0.184 A 
BRANCH  15  16
ATOM     16  O   UNL     1      39.190  21.943  18.438  0.00  0.00    -0.496 OA
ATOM     17  H   UNL     1      39.220  22.848  18.099  0.00  0.00    +0.400 HD
ENDBRANCH  15  16
BRANCH  19  20
ATOM     20  O   UNL     1      43.835  22.601  19.178  0.00  0.00    -0.479 OA
ATOM     21  H   UNL     1      44.075  22.961  20.043  0.00  0.00    +0.399 HD
ENDBRANCH  19  20
ENDBRANCH  11  12
ENDBRANCH  10  11
TORSDOF 5
ENDMDL
MODEL 5
REMARK VINA RESULT:      -6.5      1.717      2.156
REMARK  Name = ZINC43121107
REMARK  7 active torsions:
REMARK  status: ('A' for Active; 'I' for Inactive)
REMARK    1  A    between atoms: C1_1  and  C2_2
REMARK    2  A    between atoms: C2_2  and  C20_24
REMARK    3  A    between atoms: C7_7  and  C11_12
REMARK    4  A    between atoms: C12_13  and  C13_14
REMARK    5  A    between atoms: C13_14  and  C14_16
REMARK    6  A    between atoms: C17_19  and  O4_23
REMARK    7  A    between atoms: C19_21  and  O3_22
REMARK                            x       y       z     vdW  Elec       q    Type
REMARK                         _______ _______ _______ _____ _____    ______ ____
ROOT
ATOM      9  C   UNL     1      48.849  20.173  19.988  0.00  0.00    +0.134 C 
ATOM     10  C   UNL     1      49.258  20.875  18.907  0.00  0.00    -0.114 C 
ENDROOT
BRANCH   9   8
ATOM      1  C   UNL     1      41.242  19.151  21.670  0.00  0.00    +0.076 C 
ATOM      2  C   UNL     1      42.584  19.111  20.936  0.00  0.00    +0.111 C 
ATOM      3  C   UNL     1      42.356  19.309  19.435  0.00  0.00    +0.031 C 
ATOM      4  C   UNL     1      43.267  17.759  21.181  0.00  0.00    +0.017 C 
ATOM      5  C   UNL     1      44.548  17.710  20.345  0.00  0.00    +0.085 C 
ATOM      6  C   UNL     1      45.334  18.982  20.543  0.00  0.00    -0.164 A 
ATOM      7  C   UNL     1      46.668  18.995  20.193  0.00  0.00    +0.077 A 
ATOM      8  C   UNL     1      47.427  20.159  20.360  0.00  0.00    -0.119 A 
ATOM     23  C   UNL     1      46.824  21.309  20.883  0.00  0.00    +0.071 A 
ATOM     24  C   UNL     1      45.495  21.285  21.231  0.00  0.00    -0.019 A 
ATOM     25  C   UNL     1      44.742  20.123  21.066  0.00  0.00    +0.156 A 
ATOM     26  O   UNL     1      43.435  20.144  21.433  0.00  0.00    -0.305 OA
ENDBRANCH   9   8
BRANCH  10  11
ATOM     11  C   UNL     1      50.672  20.890  18.538  0.00  0.00    +0.424 C 
ATOM     22  O   UNL     1      51.424  21.705  19.039  0.00  0.00    -0.447 OA
BRANCH  11  12
ATOM     12  C   UNL     1      51.187  19.915  17.559  0.00  0.00    -0.200 A 
ATOM     13  C   UNL     1      51.157  18.547  17.846  0.00  0.00    +0.100 A 
ATOM     14  C   UNL     1      51.638  17.642  16.930  0.00  0.00    -0.029 A 
ATOM     15  C   UNL     1      52.156  18.082  15.715  0.00  0.00    +0.156 A 
ATOM     18  C   UNL     1      52.191  19.436  15.419  0.00  0.00    -0.048 A 
ATOM     19  C   UNL     1      51.704  20.357  16.331  0.00  0.00    +0.184 A 
BRANCH  15  16
ATOM     16  O   UNL     1      52.629  17.181  14.816  0.00  0.00    -0.496 OA
ATOM     17  H   UNL     1      51.972  16.533  14.526  0.00  0.00    +0.400 HD
ENDBRANCH  15  16
BRANCH  19  20
ATOM     20  O   UNL     1      51.732  21.682  16.041  0.00  0.00    -0.479 OA
ATOM     21  H   UNL     1      51.494  22.253  16.784  0.00  0.00    +0.399 HD
ENDBRANCH  19  20
ENDBRANCH  11  12
ENDBRANCH  10  11
TORSDOF 5
ENDMDL
MODEL 6
REMARK VINA RESULT:      -6.1      4.178      9.171
REMARK  Name = ZINC43121107
REMARK  7 active torsions:
REMARK  status: ('A' for Active; 'I' for Inactive)
REMARK    1  A    between atoms: C1_1  and  C2_2
REMARK    2  A    between atoms: C2_2  and  C20_24
REMARK    3  A    between atoms: C7_7  and  C11_12
REMARK    4  A    between atoms: C12_13  and  C13_14
REMARK    5  A    between atoms: C13_14  and  C14_16
REMARK    6  A    between atoms: C17_19  and  O4_23
REMARK    7  A    between atoms: C19_21  and  O3_22
REMARK                            x       y       z     vdW  Elec       q    Type
REMARK                         _______ _______ _______ _____ _____    ______ ____
ROOT
ATOM      9  C   UNL     1      44.428  16.506  20.763  0.00  0.00    +0.134 C 
ATOM     10  C   UNL     1      44.370  17.816  20.433  0.00  0.00    -0.114 C 
ENDROOT
BRANCH   9   8
ATOM      1  C   UNL     1      49.627  12.510  16.433  0.00  0.00    +0.076 C 
ATOM      2  C   UNL     1      48.511  13.477  16.834  0.00  0.00    +0.111 C 
ATOM      3  C   UNL     1      47.430  13.495  15.750  0.00  0.00    +0.031 C 
ATOM      4  C   UNL     1      49.088  14.887  17.012  0.00  0.00    +0.017 C 
ATOM      5  C   UNL     1      47.931  15.847  17.301  0.00  0.00    +0.085 C 
ATOM      6  C   UNL     1      47.049  15.269  18.378  0.00  0.00    -0.164 A 
ATOM      7  C   UNL     1      46.184  16.111  19.047  0.00  0.00    +0.077 A 
ATOM      8  C   UNL     1      45.349  15.609  20.050  0.00  0.00    -0.119 A 
ATOM     23  C   UNL     1      45.393  14.246  20.370  0.00  0.00    +0.071 A 
ATOM     24  C   UNL     1      46.260  13.416  19.700  0.00  0.00    -0.019 A 
ATOM     25  C   UNL     1      47.093  13.920  18.702  0.00  0.00    +0.156 A 
ATOM     26  O   UNL     1      47.939  13.064  18.076  0.00  0.00    -0.305 OA
ENDBRANCH   9   8
BRANCH  10  11
ATOM     11  C   UNL     1      43.454  18.708  21.142  0.00  0.00    +0.424 C 
ATOM     22  O   UNL     1      43.441  18.724  22.360  0.00  0.00    -0.447 OA
BRANCH  11  12
ATOM     12  C   UNL     1      42.549  19.589  20.382  0.00  0.00    -0.200 A 
ATOM     13  C   UNL     1      43.071  20.568  19.531  0.00  0.00    +0.100 A 
ATOM     14  C   UNL     1      42.222  21.387  18.824  0.00  0.00    -0.029 A 
ATOM     15  C   UNL     1      40.844  21.246  18.953  0.00  0.00    +0.156 A 
ATOM     18  C   UNL     1      40.314  20.279  19.793  0.00  0.00    -0.048 A 
ATOM     19  C   UNL     1      41.158  19.444  20.506  0.00  0.00    +0.184 A 
BRANCH  15  16
ATOM     16  O   UNL     1      40.013  22.060  18.252  0.00  0.00    -0.496 OA
ATOM     17  H   UNL     1      40.049  21.927  17.294  0.00  0.00    +0.400 HD
ENDBRANCH  15  16
BRANCH  19  20
ATOM     20  O   UNL     1      40.643  18.493  21.325  0.00  0.00    -0.479 OA
ATOM     21  H   UNL     1      39.726  18.655  21.588  0.00  0.00    +0.399 HD
ENDBRANCH  19  20
ENDBRANCH  11  12
ENDBRANCH  10  11
TORSDOF 5
ENDMDL
MODEL 7
REMARK VINA RESULT:      -6.1      4.248      8.191
REMARK  Name = ZINC43121107
REMARK  7 active torsions:
REMARK  status: ('A' for Active; 'I' for Inactive)
REMARK    1  A    between atoms: C1_1  and  C2_2
REMARK    2  A    between atoms: C2_2  and  C20_24
REMARK    3  A    between atoms: C7_7  and  C11_12
REMARK    4  A    between atoms: C12_13  and  C13_14
REMARK    5  A    between atoms: C13_14  and  C14_16
REMARK    6  A    between atoms: C17_19  and  O4_23
REMARK    7  A    between atoms: C19_21  and  O3_22
REMARK                            x       y       z     vdW  Elec       q    Type
REMARK                         _______ _______ _______ _____ _____    ______ ____
ROOT
ATOM      9  C   UNL     1      44.999  17.439  19.953  0.00  0.00    +0.134 C 
ATOM     10  C   UNL     1      44.304  18.534  19.574  0.00  0.00    -0.114 C 
ENDROOT
BRANCH   9   8
ATOM      1  C   UNL     1      47.934  11.972  15.132  0.00  0.00    +0.076 C 
ATOM      2  C   UNL     1      47.602  12.761  16.400  0.00  0.00    +0.111 C 
ATOM      3  C   UNL     1      48.817  12.774  17.331  0.00  0.00    +0.031 C 
ATOM      4  C   UNL     1      46.409  12.113  17.114  0.00  0.00    +0.017 C 
ATOM      5  C   UNL     1      46.176  12.857  18.432  0.00  0.00    +0.085 C 
ATOM      6  C   UNL     1      46.169  14.344  18.181  0.00  0.00    -0.164 A 
ATOM      7  C   UNL     1      45.613  15.172  19.135  0.00  0.00    +0.077 A 
ATOM      8  C   UNL     1      45.592  16.556  18.937  0.00  0.00    -0.119 A 
ATOM     23  C   UNL     1      46.138  17.098  17.767  0.00  0.00    +0.071 A 
ATOM     24  C   UNL     1      46.687  16.264  16.821  0.00  0.00    -0.019 A 
ATOM     25  C   UNL     1      46.705  14.884  17.020  0.00  0.00    +0.156 A 
ATOM     26  O   UNL     1      47.248  14.101  16.054  0.00  0.00    -0.305 OA
ENDBRANCH   9   8
BRANCH  10  11
ATOM     11  C   UNL     1      43.715  19.411  20.584  0.00  0.00    +0.424 C 
ATOM     22  O   UNL     1      42.819  19.000  21.300  0.00  0.00    -0.447 OA
BRANCH  11  12
ATOM     12  C   UNL     1      44.206  20.792  20.737  0.00  0.00    -0.200 A 
ATOM     13  C   UNL     1      45.118  21.106  21.750  0.00  0.00    +0.100 A 
ATOM     14  C   UNL     1      45.575  22.395  21.888  0.00  0.00    -0.029 A 
ATOM     15  C   UNL     1      45.132  23.392  21.024  0.00  0.00    +0.156 A 
ATOM     18  C   UNL     1      44.228  23.093  20.016  0.00  0.00    -0.048 A 
ATOM     19  C   UNL     1      43.765  21.797  19.862  0.00  0.00    +0.184 A 
BRANCH  15  16
ATOM     16  O   UNL     1      45.587  24.663  21.168  0.00  0.00    -0.496 OA
ATOM     17  H   UNL     1      46.028  24.829  22.013  0.00  0.00    +0.400 HD
ENDBRANCH  15  16
BRANCH  19  20
ATOM     20  O   UNL     1      42.885  21.501  18.873  0.00  0.00    -0.479 OA
ATOM     21  H   UNL     1      42.255  20.804  19.103  0.00  0.00    +0.399 HD
ENDBRANCH  19  20
ENDBRANCH  11  12
ENDBRANCH  10  11
TORSDOF 5
ENDMDL
MODEL 8
REMARK VINA RESULT:      -6.0      5.029      6.894
REMARK  Name = ZINC43121107
REMARK  7 active torsions:
REMARK  status: ('A' for Active; 'I' for Inactive)
REMARK    1  A    between atoms: C1_1  and  C2_2
REMARK    2  A    between atoms: C2_2  and  C20_24
REMARK    3  A    between atoms: C7_7  and  C11_12
REMARK    4  A    between atoms: C12_13  and  C13_14
REMARK    5  A    between atoms: C13_14  and  C14_16
REMARK    6  A    between atoms: C17_19  and  O4_23
REMARK    7  A    between atoms: C19_21  and  O3_22
REMARK                            x       y       z     vdW  Elec       q    Type
REMARK                         _______ _______ _______ _____ _____    ______ ____
ROOT
ATOM      9  C   UNL     1      46.977  14.338  16.506  0.00  0.00    +0.134 C 
ATOM     10  C   UNL     1      47.014  13.008  16.741  0.00  0.00    -0.114 C 
ENDROOT
BRANCH   9   8
ATOM      1  C   UNL     1      44.308  19.944  21.323  0.00  0.00    +0.076 C 
ATOM      2  C   UNL     1      45.196  19.175  20.343  0.00  0.00    +0.111 C 
ATOM      3  C   UNL     1      46.668  19.384  20.707  0.00  0.00    +0.031 C 
ATOM      4  C   UNL     1      44.941  19.674  18.915  0.00  0.00    +0.017 C 
ATOM      5  C   UNL     1      45.923  18.967  17.976  0.00  0.00    +0.085 C 
ATOM      6  C   UNL     1      45.913  17.485  18.254  0.00  0.00    -0.164 A 
ATOM      7  C   UNL     1      46.424  16.630  17.299  0.00  0.00    +0.077 A 
ATOM      8  C   UNL     1      46.434  15.249  17.524  0.00  0.00    -0.119 A 
ATOM     23  C   UNL     1      45.923  14.740  18.725  0.00  0.00    +0.071 A 
ATOM     24  C   UNL     1      45.414  15.599  19.669  0.00  0.00    -0.019 A 
ATOM     25  C   UNL     1      45.404  16.975  19.441  0.00  0.00    +0.156 A 
ATOM     26  O   UNL     1      44.881  17.783  20.397  0.00  0.00    -0.305 OA
ENDBRANCH   9   8
BRANCH  10  11
ATOM     11  C   UNL     1      47.554  12.102  15.729  0.00  0.00    +0.424 C 
ATOM     22  O   UNL     1      47.014  11.032  15.519  0.00  0.00    -0.447 OA
BRANCH  11  12
ATOM     12  C   UNL     1      48.753  12.487  14.961  0.00  0.00    -0.200 A 
ATOM     13  C   UNL     1      50.004  12.527  15.586  0.00  0.00    +0.100 A 
ATOM     14  C   UNL     1      51.119  12.886  14.866  0.00  0.00    -0.029 A 
ATOM     15  C   UNL     1      51.009  13.210  13.517  0.00  0.00    +0.156 A 
ATOM     18  C   UNL     1      49.774  13.173  12.887  0.00  0.00    -0.048 A 
ATOM     19  C   UNL     1      48.644  12.808  13.600  0.00  0.00    +0.184 A 
BRANCH  15  16
ATOM     16  O   UNL     1      52.115  13.564  12.814  0.00  0.00    -0.496 OA
ATOM     17  H   UNL     1      52.016  14.384  12.311  0.00  0.00    +0.400 HD
ENDBRANCH  15  16
BRANCH  19  20
ATOM     20  O   UNL     1      47.435  12.766  12.985  0.00  0.00    -0.479 OA
ATOM     21  H   UNL     1      46.955  11.937  13.116  0.00  0.00    +0.399 HD
ENDBRANCH  19  20
ENDBRANCH  11  12
ENDBRANCH  10  11
TORSDOF 5
ENDMDL
MODEL 9
REMARK VINA RESULT:      -5.8      2.356      8.876
REMARK  Name = ZINC43121107
REMARK  7 active torsions:
REMARK  status: ('A' for Active; 'I' for Inactive)
REMARK    1  A    between atoms: C1_1  and  C2_2
REMARK    2  A    between atoms: C2_2  and  C20_24
REMARK    3  A    between atoms: C7_7  and  C11_12
REMARK    4  A    between atoms: C12_13  and  C13_14
REMARK    5  A    between atoms: C13_14  and  C14_16
REMARK    6  A    between atoms: C17_19  and  O4_23
REMARK    7  A    between atoms: C19_21  and  O3_22
REMARK                            x       y       z     vdW  Elec       q    Type
REMARK                         _______ _______ _______ _____ _____    ______ ____
ROOT
ATOM      9  C   UNL     1      47.333  20.788  19.676  0.00  0.00    +0.134 C 
ATOM     10  C   UNL     1      46.208  20.263  19.141  0.00  0.00    -0.114 C 
ENDROOT
BRANCH   9   8
ATOM      1  C   UNL     1      53.816  16.379  19.153  0.00  0.00    +0.076 C 
ATOM      2  C   UNL     1      52.564  17.059  19.713  0.00  0.00    +0.111 C 
ATOM      3  C   UNL     1      52.808  17.471  21.166  0.00  0.00    +0.031 C 
ATOM      4  C   UNL     1      51.376  16.091  19.642  0.00  0.00    +0.017 C 
ATOM      5  C   UNL     1      50.172  16.759  20.310  0.00  0.00    +0.085 C 
ATOM      6  C   UNL     1      50.014  18.164  19.784  0.00  0.00    -0.164 A 
ATOM      7  C   UNL     1      48.803  18.803  19.961  0.00  0.00    +0.077 A 
ATOM      8  C   UNL     1      48.622  20.107  19.489  0.00  0.00    -0.119 A 
ATOM     23  C   UNL     1      49.676  20.761  18.838  0.00  0.00    +0.071 A 
ATOM     24  C   UNL     1      50.877  20.115  18.665  0.00  0.00    -0.019 A 
ATOM     25  C   UNL     1      51.054  18.814  19.135  0.00  0.00    +0.156 A 
ATOM     26  O   UNL     1      52.254  18.213  18.932  0.00  0.00    -0.305 OA
ENDBRANCH   9   8
BRANCH  10  11
ATOM     11  C   UNL     1      44.925  20.940  19.327  0.00  0.00    +0.424 C 
ATOM     22  O   UNL     1      44.795  22.101  18.985  0.00  0.00    -0.447 OA
BRANCH  11  12
ATOM     12  C   UNL     1      43.791  20.215  19.928  0.00  0.00    -0.200 A 
ATOM     13  C   UNL     1      43.925  19.618  21.186  0.00  0.00    +0.100 A 
ATOM     14  C   UNL     1      42.863  18.944  21.743  0.00  0.00    -0.029 A 
ATOM     15  C   UNL     1      41.655  18.853  21.059  0.00  0.00    +0.156 A 
ATOM     18  C   UNL     1      41.510  19.441  19.811  0.00  0.00    -0.048 A 
ATOM     19  C   UNL     1      42.570  20.127  19.242  0.00  0.00    +0.184 A 
BRANCH  15  16
ATOM     16  O   UNL     1      40.612  18.184  21.616  0.00  0.00    -0.496 OA
ATOM     17  H   UNL     1      39.921  18.760  21.971  0.00  0.00    +0.400 HD
ENDBRANCH  15  16
BRANCH  19  20
ATOM     20  O   UNL     1      42.429  20.708  18.025  0.00  0.00    -0.479 OA
ATOM     21  H   UNL     1      42.197  20.090  17.318  0.00  0.00    +0.399 HD
ENDBRANCH  19  20
ENDBRANCH  11  12
ENDBRANCH  10  11
TORSDOF 5
ENDMDL
