MODEL 1
REMARK VINA RESULT:      -7.3      0.000      0.000
REMARK  Name = ZINC95486357
REMARK  16 active torsions:
REMARK  status: ('A' for Active; 'I' for Inactive)
REMARK    1  A    between atoms: C3_3  and  C7_8
REMARK    2  A    between atoms: C5_5  and  O1_7
REMARK    3  A    between atoms: C8_9  and  O5_21
REMARK    4  A    between atoms: C13_15  and  O4_19
REMARK    5  A    between atoms: C15_17  and  O3_18
REMARK    6  A    between atoms: O5_21  and  C17_22
REMARK    7  A    between atoms: C18_24  and  O14_48
REMARK    8  A    between atoms: C19_26  and  O13_47
REMARK    9  A    between atoms: C20_28  and  O8_35
REMARK   10  A    between atoms: C21_30  and  C22_33
REMARK   11  A    between atoms: C22_33  and  O7_34
REMARK   12  A    between atoms: O8_35  and  C23_36
REMARK   13  A    between atoms: C23_36  and  C24_38
REMARK   14  A    between atoms: C26_40  and  O12_46
REMARK   15  A    between atoms: C27_41  and  O11_45
REMARK   16  A    between atoms: C28_42  and  O10_44
REMARK                            x       y       z     vdW  Elec       q    Type
REMARK                         _______ _______ _______ _____ _____    ______ ____
ROOT
ATOM      7  C   UNL     1      46.121  17.092  20.521  0.00  0.00    +0.300 C 
ATOM      8  C   UNL     1      47.044  16.051  21.159  0.00  0.00    +0.153 C 
ATOM     11  C   UNL     1      47.138  14.831  20.237  0.00  0.00    +0.179 C 
ATOM     14  C   UNL     1      47.635  15.282  18.861  0.00  0.00    +0.182 C 
ATOM     30  C   UNL     1      46.690  16.354  18.312  0.00  0.00    +0.197 C 
ATOM     34  O   UNL     1      46.624  17.446  19.231  0.00  0.00    -0.366 OA
ENDROOT
BRANCH   8   9
ATOM      9  O   UNL     1      46.513  15.654  22.426  0.00  0.00    -0.549 OA
ATOM     10  H   UNL     1      46.967  16.047  23.184  0.00  0.00    +0.396 HD
ENDBRANCH   8   9
BRANCH  11  12
ATOM     12  O   UNL     1      48.053  13.883  20.791  0.00  0.00    -0.539 OA
ATOM     13  H   UNL     1      47.643  13.047  21.051  0.00  0.00    +0.392 HD
ENDBRANCH  11  12
BRANCH   7   6
ATOM      6  O   UNL     1      46.073  18.256  21.350  0.00  0.00    -0.283 OA
BRANCH   6   5
ATOM      4  C   UNL     1      45.707  20.444  20.592  0.00  0.00    -0.008 C 
ATOM      5  C   UNL     1      45.223  19.248  20.972  0.00  0.00    +0.004 C 
ATOM     35  C   UNL     1      43.770  19.015  20.975  0.00  0.00    +0.418 C 
ATOM     36  C   UNL     1      42.921  19.958  20.221  0.00  0.00    -0.200 A 
ATOM     37  C   UNL     1      43.446  21.193  19.830  0.00  0.00    -0.000 A 
ATOM     38  C   UNL     1      42.660  22.059  19.117  0.00  0.00    -0.022 A 
ATOM     39  C   UNL     1      41.351  21.723  18.789  0.00  0.00    +0.166 A 
ATOM     42  C   UNL     1      40.819  20.504  19.181  0.00  0.00    -0.044 A 
ATOM     43  C   UNL     1      41.600  19.614  19.900  0.00  0.00    +0.194 A 
ATOM     46  O   UNL     1      43.283  18.077  21.581  0.00  0.00    -0.426 OA
ATOM     47  C   UNL     1      44.847  21.598  20.190  0.00  0.00    +0.185 C 
BRANCH   4   3
ATOM      1  C   UNL     1      49.224  21.028  21.758  0.00  0.00    +0.026 A 
ATOM      2  C   UNL     1      47.856  20.854  21.775  0.00  0.00    +0.031 A 
ATOM      3  C   UNL     1      47.166  20.630  20.579  0.00  0.00    -0.042 A 
ATOM     48  C   UNL     1      47.869  20.582  19.372  0.00  0.00    +0.018 A 
ATOM     49  C   UNL     1      49.242  20.758  19.368  0.00  0.00    +0.105 A 
ATOM     52  C   UNL     1      49.917  20.980  20.562  0.00  0.00    -0.011 A 
BRANCH  49  50
ATOM     50  O   UNL     1      49.930  20.712  18.198  0.00  0.00    -0.499 OA
ATOM     51  H   UNL     1      50.193  21.580  17.862  0.00  0.00    +0.392 HD
ENDBRANCH  49  50
ENDBRANCH   4   3
BRANCH  39  40
ATOM     40  O   UNL     1      40.589  22.596  18.082  0.00  0.00    -0.494 OA
ATOM     41  H   UNL     1      40.308  22.262  17.219  0.00  0.00    +0.401 HD
ENDBRANCH  39  40
BRANCH  43  44
ATOM     44  O   UNL     1      41.091  18.420  20.291  0.00  0.00    -0.481 OA
ATOM     45  H   UNL     1      40.840  18.384  21.224  0.00  0.00    +0.404 HD
ENDBRANCH  43  44
ENDBRANCH   6   5
ENDBRANCH   7   6
BRANCH  14  15
ATOM     15  O   UNL     1      47.659  14.164  17.972  0.00  0.00    -0.333 OA
BRANCH  15  16
ATOM     16  C   UNL     1      48.870  13.697  17.608  0.00  0.00    +0.514 C 
ATOM     29  O   UNL     1      49.736  13.540  18.446  0.00  0.00    -0.470 OA
BRANCH  16  17
ATOM     17  C   UNL     1      49.144  13.379  16.194  0.00  0.00    -0.099 A 
ATOM     18  C   UNL     1      48.085  13.188  15.302  0.00  0.00    +0.070 A 
ATOM     19  C   UNL     1      48.344  12.889  13.978  0.00  0.00    +0.086 A 
ATOM     22  C   UNL     1      49.659  12.780  13.532  0.00  0.00    +0.094 A 
ATOM     25  C   UNL     1      50.716  12.970  14.419  0.00  0.00    +0.089 A 
ATOM     28  C   UNL     1      50.462  13.275  15.743  0.00  0.00    +0.081 A 
BRANCH  19  20
ATOM     20  O   UNL     1      47.315  12.703  13.109  0.00  0.00    -0.478 OA
ATOM     21  H   UNL     1      47.349  13.275  12.330  0.00  0.00    +0.392 HD
ENDBRANCH  19  20
BRANCH  22  23
ATOM     23  O   UNL     1      49.912  12.486  12.230  0.00  0.00    -0.472 OA
ATOM     24  H   UNL     1      49.238  11.932  11.814  0.00  0.00    +0.392 HD
ENDBRANCH  22  23
BRANCH  25  26
ATOM     26  O   UNL     1      51.999  12.863  13.981  0.00  0.00    -0.478 OA
ATOM     27  H   UNL     1      52.336  13.660  13.551  0.00  0.00    +0.393 HD
ENDBRANCH  25  26
ENDBRANCH  16  17
ENDBRANCH  15  16
ENDBRANCH  14  15
BRANCH  30  31
ATOM     31  C   UNL     1      47.212  16.853  16.963  0.00  0.00    +0.221 C 
BRANCH  31  32
ATOM     32  O   UNL     1      46.444  16.268  15.909  0.00  0.00    -0.560 OA
ATOM     33  H   UNL     1      46.383  16.818  15.116  0.00  0.00    +0.384 HD
ENDBRANCH  31  32
ENDBRANCH  30  31
TORSDOF 16
ENDMDL
MODEL 2
REMARK VINA RESULT:      -7.1      2.086      3.314
REMARK  Name = ZINC95486357
REMARK  16 active torsions:
REMARK  status: ('A' for Active; 'I' for Inactive)
REMARK    1  A    between atoms: C3_3  and  C7_8
REMARK    2  A    between atoms: C5_5  and  O1_7
REMARK    3  A    between atoms: C8_9  and  O5_21
REMARK    4  A    between atoms: C13_15  and  O4_19
REMARK    5  A    between atoms: C15_17  and  O3_18
REMARK    6  A    between atoms: O5_21  and  C17_22
REMARK    7  A    between atoms: C18_24  and  O14_48
REMARK    8  A    between atoms: C19_26  and  O13_47
REMARK    9  A    between atoms: C20_28  and  O8_35
REMARK   10  A    between atoms: C21_30  and  C22_33
REMARK   11  A    between atoms: C22_33  and  O7_34
REMARK   12  A    between atoms: O8_35  and  C23_36
REMARK   13  A    between atoms: C23_36  and  C24_38
REMARK   14  A    between atoms: C26_40  and  O12_46
REMARK   15  A    between atoms: C27_41  and  O11_45
REMARK   16  A    between atoms: C28_42  and  O10_44
REMARK                            x       y       z     vdW  Elec       q    Type
REMARK                         _______ _______ _______ _____ _____    ______ ____
ROOT
ATOM      7  C   UNL     1      49.504  16.480  20.152  0.00  0.00    +0.300 C 
ATOM      8  C   UNL     1      50.943  15.970  20.040  0.00  0.00    +0.153 C 
ATOM     11  C   UNL     1      50.928  14.544  19.481  0.00  0.00    +0.179 C 
ATOM     14  C   UNL     1      50.205  14.544  18.131  0.00  0.00    +0.182 C 
ATOM     30  C   UNL     1      48.795  15.109  18.316  0.00  0.00    +0.197 C 
ATOM     34  O   UNL     1      48.879  16.425  18.868  0.00  0.00    -0.366 OA
ENDROOT
BRANCH   8   9
ATOM      9  O   UNL     1      51.553  15.971  21.333  0.00  0.00    -0.549 OA
ATOM     10  H   UNL     1      50.921  15.988  22.065  0.00  0.00    +0.396 HD
ENDBRANCH   8   9
BRANCH  11  12
ATOM     12  O   UNL     1      52.271  14.086  19.306  0.00  0.00    -0.539 OA
ATOM     13  H   UNL     1      52.526  13.957  18.382  0.00  0.00    +0.392 HD
ENDBRANCH  11  12
BRANCH   7   6
ATOM      6  O   UNL     1      49.513  17.830  20.620  0.00  0.00    -0.283 OA
BRANCH   6   5
ATOM      4  C   UNL     1      48.571  19.656  19.491  0.00  0.00    -0.008 C 
ATOM      5  C   UNL     1      48.434  18.597  20.310  0.00  0.00    +0.004 C 
ATOM     35  C   UNL     1      47.112  18.273  20.870  0.00  0.00    +0.418 C 
ATOM     36  C   UNL     1      45.928  18.881  20.232  0.00  0.00    -0.200 A 
ATOM     37  C   UNL     1      46.093  19.975  19.379  0.00  0.00    -0.000 A 
ATOM     38  C   UNL     1      44.993  20.527  18.777  0.00  0.00    -0.022 A 
ATOM     39  C   UNL     1      43.723  20.014  19.014  0.00  0.00    +0.166 A 
ATOM     42  C   UNL     1      43.549  18.935  19.867  0.00  0.00    -0.044 A 
ATOM     43  C   UNL     1      44.649  18.362  20.482  0.00  0.00    +0.194 A 
ATOM     46  O   UNL     1      46.998  17.528  21.827  0.00  0.00    -0.426 OA
ATOM     47  C   UNL     1      47.449  20.570  19.121  0.00  0.00    +0.185 C 
BRANCH   4   3
ATOM      1  C   UNL     1      51.566  19.567  17.235  0.00  0.00    +0.026 A 
ATOM      2  C   UNL     1      50.316  19.304  17.753  0.00  0.00    +0.031 A 
ATOM      3  C   UNL     1      49.904  19.933  18.933  0.00  0.00    -0.042 A 
ATOM     48  C   UNL     1      50.763  20.826  19.580  0.00  0.00    +0.018 A 
ATOM     49  C   UNL     1      52.015  21.081  19.048  0.00  0.00    +0.105 A 
ATOM     52  C   UNL     1      52.415  20.451  17.876  0.00  0.00    -0.011 A 
BRANCH  49  50
ATOM     50  O   UNL     1      52.854  21.949  19.671  0.00  0.00    -0.499 OA
ATOM     51  H   UNL     1      53.763  21.923  19.341  0.00  0.00    +0.392 HD
ENDBRANCH  49  50
ENDBRANCH   4   3
BRANCH  39  40
ATOM     40  O   UNL     1      42.646  20.576  18.408  0.00  0.00    -0.494 OA
ATOM     41  H   UNL     1      42.452  21.474  18.706  0.00  0.00    +0.401 HD
ENDBRANCH  39  40
BRANCH  43  44
ATOM     44  O   UNL     1      44.492  17.307  21.319  0.00  0.00    -0.481 OA
ATOM     45  H   UNL     1      45.130  16.594  21.179  0.00  0.00    +0.404 HD
ENDBRANCH  43  44
ENDBRANCH   6   5
ENDBRANCH   7   6
BRANCH  14  15
ATOM     15  O   UNL     1      50.123  13.207  17.633  0.00  0.00    -0.333 OA
BRANCH  15  16
ATOM     16  C   UNL     1      51.000  12.857  16.671  0.00  0.00    +0.514 C 
ATOM     29  O   UNL     1      52.111  12.470  16.975  0.00  0.00    -0.470 OA
BRANCH  16  17
ATOM     17  C   UNL     1      50.612  12.946  15.251  0.00  0.00    -0.099 A 
ATOM     18  C   UNL     1      51.581  13.195  14.275  0.00  0.00    +0.070 A 
ATOM     19  C   UNL     1      51.215  13.279  12.945  0.00  0.00    +0.086 A 
ATOM     22  C   UNL     1      49.882  13.114  12.577  0.00  0.00    +0.094 A 
ATOM     25  C   UNL     1      48.915  12.867  13.547  0.00  0.00    +0.089 A 
ATOM     28  C   UNL     1      49.276  12.775  14.878  0.00  0.00    +0.081 A 
BRANCH  19  20
ATOM     20  O   UNL     1      52.157  13.521  11.995  0.00  0.00    -0.478 OA
ATOM     21  H   UNL     1      51.888  14.170  11.330  0.00  0.00    +0.392 HD
ENDBRANCH  19  20
BRANCH  22  23
ATOM     23  O   UNL     1      49.524  13.197  11.269  0.00  0.00    -0.472 OA
ATOM     24  H   UNL     1      50.099  12.699  10.672  0.00  0.00    +0.392 HD
ENDBRANCH  22  23
BRANCH  25  26
ATOM     26  O   UNL     1      47.614  12.706  13.185  0.00  0.00    -0.478 OA
ATOM     27  H   UNL     1      47.450  12.828  12.240  0.00  0.00    +0.393 HD
ENDBRANCH  25  26
ENDBRANCH  16  17
ENDBRANCH  15  16
ENDBRANCH  14  15
BRANCH  30  31
ATOM     31  C   UNL     1      48.086  15.168  16.962  0.00  0.00    +0.221 C 
BRANCH  31  32
ATOM     32  O   UNL     1      47.810  16.530  16.627  0.00  0.00    -0.560 OA
ATOM     33  H   UNL     1      48.553  17.130  16.780  0.00  0.00    +0.384 HD
ENDBRANCH  31  32
ENDBRANCH  30  31
TORSDOF 16
ENDMDL
MODEL 3
REMARK VINA RESULT:      -7.1      1.466      1.757
REMARK  Name = ZINC95486357
REMARK  16 active torsions:
REMARK  status: ('A' for Active; 'I' for Inactive)
REMARK    1  A    between atoms: C3_3  and  C7_8
REMARK    2  A    between atoms: C5_5  and  O1_7
REMARK    3  A    between atoms: C8_9  and  O5_21
REMARK    4  A    between atoms: C13_15  and  O4_19
REMARK    5  A    between atoms: C15_17  and  O3_18
REMARK    6  A    between atoms: O5_21  and  C17_22
REMARK    7  A    between atoms: C18_24  and  O14_48
REMARK    8  A    between atoms: C19_26  and  O13_47
REMARK    9  A    between atoms: C20_28  and  O8_35
REMARK   10  A    between atoms: C21_30  and  C22_33
REMARK   11  A    between atoms: C22_33  and  O7_34
REMARK   12  A    between atoms: O8_35  and  C23_36
REMARK   13  A    between atoms: C23_36  and  C24_38
REMARK   14  A    between atoms: C26_40  and  O12_46
REMARK   15  A    between atoms: C27_41  and  O11_45
REMARK   16  A    between atoms: C28_42  and  O10_44
REMARK                            x       y       z     vdW  Elec       q    Type
REMARK                         _______ _______ _______ _____ _____    ______ ____
ROOT
ATOM      7  C   UNL     1      46.654  17.223  19.243  0.00  0.00    +0.300 C 
ATOM      8  C   UNL     1      46.146  15.800  19.491  0.00  0.00    +0.153 C 
ATOM     11  C   UNL     1      46.253  14.995  18.192  0.00  0.00    +0.179 C 
ATOM     14  C   UNL     1      47.706  15.016  17.709  0.00  0.00    +0.182 C 
ATOM     30  C   UNL     1      48.155  16.469  17.530  0.00  0.00    +0.197 C 
ATOM     34  O   UNL     1      48.001  17.170  18.766  0.00  0.00    -0.366 OA
ENDROOT
BRANCH   8   9
ATOM      9  O   UNL     1      44.781  15.848  19.914  0.00  0.00    -0.549 OA
ATOM     10  H   UNL     1      44.666  15.825  20.874  0.00  0.00    +0.396 HD
ENDBRANCH   8   9
BRANCH  11  12
ATOM     12  O   UNL     1      45.847  13.646  18.433  0.00  0.00    -0.539 OA
ATOM     13  H   UNL     1      45.192  13.314  17.803  0.00  0.00    +0.392 HD
ENDBRANCH  11  12
BRANCH   7   6
ATOM      6  O   UNL     1      46.610  17.964  20.464  0.00  0.00    -0.283 OA
BRANCH   6   5
ATOM      4  C   UNL     1      46.750  20.304  20.450  0.00  0.00    -0.008 C 
ATOM      5  C   UNL     1      46.008  19.182  20.425  0.00  0.00    +0.004 C 
ATOM     35  C   UNL     1      44.541  19.279  20.353  0.00  0.00    +0.418 C 
ATOM     36  C   UNL     1      43.956  20.570  19.942  0.00  0.00    -0.200 A 
ATOM     37  C   UNL     1      44.747  21.721  19.969  0.00  0.00    -0.000 A 
ATOM     38  C   UNL     1      44.205  22.915  19.572  0.00  0.00    -0.022 A 
ATOM     39  C   UNL     1      42.881  22.989  19.153  0.00  0.00    +0.166 A 
ATOM     42  C   UNL     1      42.086  21.852  19.133  0.00  0.00    -0.044 A 
ATOM     43  C   UNL     1      42.618  20.636  19.528  0.00  0.00    +0.194 A 
ATOM     46  O   UNL     1      43.833  18.325  20.625  0.00  0.00    -0.426 OA
ATOM     47  C   UNL     1      46.173  21.682  20.440  0.00  0.00    +0.185 C 
BRANCH   4   3
ATOM      1  C   UNL     1      50.226  19.747  21.746  0.00  0.00    +0.026 A 
ATOM      2  C   UNL     1      48.853  19.875  21.707  0.00  0.00    +0.031 A 
ATOM      3  C   UNL     1      48.214  20.166  20.497  0.00  0.00    -0.042 A 
ATOM     48  C   UNL     1      48.972  20.324  19.333  0.00  0.00    +0.018 A 
ATOM     49  C   UNL     1      50.349  20.193  19.386  0.00  0.00    +0.105 A 
ATOM     52  C   UNL     1      50.973  19.904  20.593  0.00  0.00    -0.011 A 
BRANCH  49  50
ATOM     50  O   UNL     1      51.090  20.345  18.258  0.00  0.00    -0.499 OA
ATOM     51  H   UNL     1      50.861  19.726  17.551  0.00  0.00    +0.392 HD
ENDBRANCH  49  50
ENDBRANCH   4   3
BRANCH  39  40
ATOM     40  O   UNL     1      42.363  24.181  18.764  0.00  0.00    -0.494 OA
ATOM     41  H   UNL     1      43.010  24.899  18.733  0.00  0.00    +0.401 HD
ENDBRANCH  39  40
BRANCH  43  44
ATOM     44  O   UNL     1      41.851  19.518  19.514  0.00  0.00    -0.481 OA
ATOM     45  H   UNL     1      41.518  19.257  20.384  0.00  0.00    +0.404 HD
ENDBRANCH  43  44
ENDBRANCH   6   5
ENDBRANCH   7   6
BRANCH  14  15
ATOM     15  O   UNL     1      47.805  14.328  16.462  0.00  0.00    -0.333 OA
BRANCH  15  16
ATOM     16  C   UNL     1      48.570  13.219  16.434  0.00  0.00    +0.514 C 
ATOM     29  O   UNL     1      48.588  12.469  17.390  0.00  0.00    -0.470 OA
BRANCH  16  17
ATOM     17  C   UNL     1      49.387  12.916  15.243  0.00  0.00    -0.099 A 
ATOM     18  C   UNL     1      48.853  13.096  13.964  0.00  0.00    +0.070 A 
ATOM     19  C   UNL     1      49.620  12.811  12.850  0.00  0.00    +0.086 A 
ATOM     22  C   UNL     1      50.924  12.346  13.002  0.00  0.00    +0.094 A 
ATOM     25  C   UNL     1      51.457  12.164  14.275  0.00  0.00    +0.089 A 
ATOM     28  C   UNL     1      50.697  12.454  15.392  0.00  0.00    +0.081 A 
BRANCH  19  20
ATOM     20  O   UNL     1      49.102  12.987  11.605  0.00  0.00    -0.478 OA
ATOM     21  H   UNL     1      49.766  13.152  10.922  0.00  0.00    +0.392 HD
ENDBRANCH  19  20
BRANCH  22  23
ATOM     23  O   UNL     1      51.677  12.066  11.906  0.00  0.00    -0.472 OA
ATOM     24  H   UNL     1      52.408  12.682  11.763  0.00  0.00    +0.392 HD
ENDBRANCH  22  23
BRANCH  25  26
ATOM     26  O   UNL     1      52.731  11.709  14.420  0.00  0.00    -0.478 OA
ATOM     27  H   UNL     1      53.306  11.902  13.668  0.00  0.00    +0.393 HD
ENDBRANCH  25  26
ENDBRANCH  16  17
ENDBRANCH  15  16
ENDBRANCH  14  15
BRANCH  30  31
ATOM     31  C   UNL     1      49.624  16.500  17.105  0.00  0.00    +0.221 C 
BRANCH  31  32
ATOM     32  O   UNL     1      50.001  17.844  16.793  0.00  0.00    -0.560 OA
ATOM     33  H   UNL     1      50.725  18.184  17.336  0.00  0.00    +0.384 HD
ENDBRANCH  31  32
ENDBRANCH  30  31
TORSDOF 16
ENDMDL
MODEL 4
REMARK VINA RESULT:      -6.9      2.030      2.971
REMARK  Name = ZINC95486357
REMARK  16 active torsions:
REMARK  status: ('A' for Active; 'I' for Inactive)
REMARK    1  A    between atoms: C3_3  and  C7_8
REMARK    2  A    between atoms: C5_5  and  O1_7
REMARK    3  A    between atoms: C8_9  and  O5_21
REMARK    4  A    between atoms: C13_15  and  O4_19
REMARK    5  A    between atoms: C15_17  and  O3_18
REMARK    6  A    between atoms: O5_21  and  C17_22
REMARK    7  A    between atoms: C18_24  and  O14_48
REMARK    8  A    between atoms: C19_26  and  O13_47
REMARK    9  A    between atoms: C20_28  and  O8_35
REMARK   10  A    between atoms: C21_30  and  C22_33
REMARK   11  A    between atoms: C22_33  and  O7_34
REMARK   12  A    between atoms: O8_35  and  C23_36
REMARK   13  A    between atoms: C23_36  and  C24_38
REMARK   14  A    between atoms: C26_40  and  O12_46
REMARK   15  A    between atoms: C27_41  and  O11_45
REMARK   16  A    between atoms: C28_42  and  O10_44
REMARK                            x       y       z     vdW  Elec       q    Type
REMARK                         _______ _______ _______ _____ _____    ______ ____
ROOT
ATOM      7  C   UNL     1      49.423  16.419  20.198  0.00  0.00    +0.300 C 
ATOM      8  C   UNL     1      50.844  15.858  20.088  0.00  0.00    +0.153 C 
ATOM     11  C   UNL     1      50.776  14.420  19.565  0.00  0.00    +0.179 C 
ATOM     14  C   UNL     1      50.043  14.412  18.220  0.00  0.00    +0.182 C 
ATOM     30  C   UNL     1      48.654  15.030  18.402  0.00  0.00    +0.197 C 
ATOM     34  O   UNL     1      48.787  16.355  18.920  0.00  0.00    -0.366 OA
ENDROOT
BRANCH   8   9
ATOM      9  O   UNL     1      51.463  15.870  21.377  0.00  0.00    -0.549 OA
ATOM     10  H   UNL     1      51.289  16.672  21.889  0.00  0.00    +0.396 HD
ENDBRANCH   8   9
BRANCH  11  12
ATOM     12  O   UNL     1      52.101  13.913  19.392  0.00  0.00    -0.539 OA
ATOM     13  H   UNL     1      52.590  14.328  18.668  0.00  0.00    +0.392 HD
ENDBRANCH  11  12
BRANCH   7   6
ATOM      6  O   UNL     1      49.482  17.780  20.633  0.00  0.00    -0.283 OA
BRANCH   6   5
ATOM      4  C   UNL     1      48.579  19.646  19.539  0.00  0.00    -0.008 C 
ATOM      5  C   UNL     1      48.418  18.570  20.330  0.00  0.00    +0.004 C 
ATOM     35  C   UNL     1      47.085  18.252  20.866  0.00  0.00    +0.418 C 
ATOM     36  C   UNL     1      45.917  18.893  20.230  0.00  0.00    -0.200 A 
ATOM     37  C   UNL     1      46.108  20.005  19.406  0.00  0.00    -0.000 A 
ATOM     38  C   UNL     1      45.023  20.587  18.806  0.00  0.00    -0.022 A 
ATOM     39  C   UNL     1      43.743  20.087  19.016  0.00  0.00    +0.166 A 
ATOM     42  C   UNL     1      43.543  18.990  19.840  0.00  0.00    -0.044 A 
ATOM     43  C   UNL     1      44.628  18.386  20.453  0.00  0.00    +0.194 A 
ATOM     46  O   UNL     1      46.949  17.486  21.803  0.00  0.00    -0.426 OA
ATOM     47  C   UNL     1      47.475  20.585  19.178  0.00  0.00    +0.185 C 
BRANCH   4   3
ATOM      1  C   UNL     1      51.974  21.171  19.067  0.00  0.00    +0.026 A 
ATOM      2  C   UNL     1      50.716  20.920  19.572  0.00  0.00    +0.031 A 
ATOM      3  C   UNL     1      49.922  19.918  19.003  0.00  0.00    -0.042 A 
ATOM     48  C   UNL     1      50.410  19.176  17.923  0.00  0.00    +0.018 A 
ATOM     49  C   UNL     1      51.675  19.439  17.426  0.00  0.00    +0.105 A 
ATOM     52  C   UNL     1      52.455  20.436  17.998  0.00  0.00    -0.011 A 
BRANCH  49  50
ATOM     50  O   UNL     1      52.155  18.721  16.377  0.00  0.00    -0.499 OA
ATOM     51  H   UNL     1      51.472  18.419  15.762  0.00  0.00    +0.392 HD
ENDBRANCH  49  50
ENDBRANCH   4   3
BRANCH  39  40
ATOM     40  O   UNL     1      42.681  20.680  18.412  0.00  0.00    -0.494 OA
ATOM     41  H   UNL     1      41.949  20.877  19.011  0.00  0.00    +0.401 HD
ENDBRANCH  39  40
BRANCH  43  44
ATOM     44  O   UNL     1      44.446  17.314  21.263  0.00  0.00    -0.481 OA
ATOM     45  H   UNL     1      45.239  17.045  21.746  0.00  0.00    +0.404 HD
ENDBRANCH  43  44
ENDBRANCH   6   5
ENDBRANCH   7   6
BRANCH  14  15
ATOM     15  O   UNL     1      49.911  13.067  17.756  0.00  0.00    -0.333 OA
BRANCH  15  16
ATOM     16  C   UNL     1      50.780  12.659  16.811  0.00  0.00    +0.514 C 
ATOM     29  O   UNL     1      51.842  12.165  17.135  0.00  0.00    -0.470 OA
BRANCH  16  17
ATOM     17  C   UNL     1      50.443  12.812  15.383  0.00  0.00    -0.099 A 
ATOM     18  C   UNL     1      49.121  12.662  14.956  0.00  0.00    +0.070 A 
ATOM     19  C   UNL     1      48.807  12.805  13.618  0.00  0.00    +0.086 A 
ATOM     22  C   UNL     1      49.807  13.101  12.695  0.00  0.00    +0.094 A 
ATOM     25  C   UNL     1      51.125  13.251  13.118  0.00  0.00    +0.089 A 
ATOM     28  C   UNL     1      51.444  13.115  14.456  0.00  0.00    +0.081 A 
BRANCH  19  20
ATOM     20  O   UNL     1      47.521  12.659  13.202  0.00  0.00    -0.478 OA
ATOM     21  H   UNL     1      46.927  13.359  13.506  0.00  0.00    +0.392 HD
ENDBRANCH  19  20
BRANCH  22  23
ATOM     23  O   UNL     1      49.497  13.242  11.380  0.00  0.00    -0.472 OA
ATOM     24  H   UNL     1      48.605  13.578  11.220  0.00  0.00    +0.392 HD
ENDBRANCH  22  23
BRANCH  25  26
ATOM     26  O   UNL     1      52.100  13.539  12.214  0.00  0.00    -0.478 OA
ATOM     27  H   UNL     1      51.798  13.544  11.296  0.00  0.00    +0.393 HD
ENDBRANCH  25  26
ENDBRANCH  16  17
ENDBRANCH  15  16
ENDBRANCH  14  15
BRANCH  30  31
ATOM     31  C   UNL     1      47.937  15.079  17.051  0.00  0.00    +0.221 C 
BRANCH  31  32
ATOM     32  O   UNL     1      46.880  14.117  17.037  0.00  0.00    -0.560 OA
ATOM     33  H   UNL     1      46.939  13.459  17.743  0.00  0.00    +0.384 HD
ENDBRANCH  31  32
ENDBRANCH  30  31
TORSDOF 16
ENDMDL
MODEL 5
REMARK VINA RESULT:      -6.8      2.249      8.703
REMARK  Name = ZINC95486357
REMARK  16 active torsions:
REMARK  status: ('A' for Active; 'I' for Inactive)
REMARK    1  A    between atoms: C3_3  and  C7_8
REMARK    2  A    between atoms: C5_5  and  O1_7
REMARK    3  A    between atoms: C8_9  and  O5_21
REMARK    4  A    between atoms: C13_15  and  O4_19
REMARK    5  A    between atoms: C15_17  and  O3_18
REMARK    6  A    between atoms: O5_21  and  C17_22
REMARK    7  A    between atoms: C18_24  and  O14_48
REMARK    8  A    between atoms: C19_26  and  O13_47
REMARK    9  A    between atoms: C20_28  and  O8_35
REMARK   10  A    between atoms: C21_30  and  C22_33
REMARK   11  A    between atoms: C22_33  and  O7_34
REMARK   12  A    between atoms: O8_35  and  C23_36
REMARK   13  A    between atoms: C23_36  and  C24_38
REMARK   14  A    between atoms: C26_40  and  O12_46
REMARK   15  A    between atoms: C27_41  and  O11_45
REMARK   16  A    between atoms: C28_42  and  O10_44
REMARK                            x       y       z     vdW  Elec       q    Type
REMARK                         _______ _______ _______ _____ _____    ______ ____
ROOT
ATOM      7  C   UNL     1      48.060  16.787  20.661  0.00  0.00    +0.300 C 
ATOM      8  C   UNL     1      46.827  15.906  20.880  0.00  0.00    +0.153 C 
ATOM     11  C   UNL     1      45.746  16.724  21.592  0.00  0.00    +0.179 C 
ATOM     14  C   UNL     1      45.429  17.968  20.756  0.00  0.00    +0.182 C 
ATOM     30  C   UNL     1      46.716  18.769  20.541  0.00  0.00    +0.197 C 
ATOM     34  O   UNL     1      47.691  17.941  19.904  0.00  0.00    -0.366 OA
ENDROOT
BRANCH   8   9
ATOM      9  O   UNL     1      47.183  14.779  21.686  0.00  0.00    -0.549 OA
ATOM     10  H   UNL     1      48.057  14.847  22.093  0.00  0.00    +0.396 HD
ENDBRANCH   8   9
BRANCH  11  12
ATOM     12  O   UNL     1      44.565  15.931  21.737  0.00  0.00    -0.539 OA
ATOM     13  H   UNL     1      44.733  15.030  22.046  0.00  0.00    +0.392 HD
ENDBRANCH  11  12
BRANCH   7   6
ATOM      6  O   UNL     1      49.054  16.047  19.948  0.00  0.00    -0.283 OA
BRANCH   6   5
ATOM      4  C   UNL     1      49.775  16.441  17.753  0.00  0.00    -0.008 C 
ATOM      5  C   UNL     1      49.822  16.737  19.065  0.00  0.00    +0.004 C 
ATOM     35  C   UNL     1      50.707  17.813  19.539  0.00  0.00    +0.418 C 
ATOM     36  C   UNL     1      51.227  18.766  18.540  0.00  0.00    -0.200 A 
ATOM     37  C   UNL     1      51.162  18.442  17.182  0.00  0.00    -0.000 A 
ATOM     38  C   UNL     1      51.632  19.336  16.257  0.00  0.00    -0.022 A 
ATOM     39  C   UNL     1      52.175  20.552  16.657  0.00  0.00    +0.166 A 
ATOM     42  C   UNL     1      52.253  20.878  18.003  0.00  0.00    -0.044 A 
ATOM     43  C   UNL     1      51.780  19.987  18.953  0.00  0.00    +0.194 A 
ATOM     46  O   UNL     1      51.002  17.913  20.717  0.00  0.00    -0.426 OA
ATOM     47  C   UNL     1      50.605  17.127  16.717  0.00  0.00    +0.185 C 
BRANCH   4   3
ATOM      1  C   UNL     1      46.649  14.652  16.707  0.00  0.00    +0.026 A 
ATOM      2  C   UNL     1      47.502  15.654  17.118  0.00  0.00    +0.031 A 
ATOM      3  C   UNL     1      48.860  15.376  17.315  0.00  0.00    -0.042 A 
ATOM     48  C   UNL     1      49.343  14.083  17.094  0.00  0.00    +0.018 A 
ATOM     49  C   UNL     1      48.474  13.087  16.682  0.00  0.00    +0.105 A 
ATOM     52  C   UNL     1      47.129  13.373  16.489  0.00  0.00    -0.011 A 
BRANCH  49  50
ATOM     50  O   UNL     1      48.938  11.828  16.465  0.00  0.00    -0.499 OA
ATOM     51  H   UNL     1      48.472  11.353  15.763  0.00  0.00    +0.392 HD
ENDBRANCH  49  50
ENDBRANCH   4   3
BRANCH  39  40
ATOM     40  O   UNL     1      52.636  21.424  15.724  0.00  0.00    -0.494 OA
ATOM     41  H   UNL     1      51.989  21.645  15.041  0.00  0.00    +0.401 HD
ENDBRANCH  39  40
BRANCH  43  44
ATOM     44  O   UNL     1      51.851  20.294  20.272  0.00  0.00    -0.481 OA
ATOM     45  H   UNL     1      52.737  20.206  20.649  0.00  0.00    +0.404 HD
ENDBRANCH  43  44
ENDBRANCH   6   5
ENDBRANCH   7   6
BRANCH  14  15
ATOM     15  O   UNL     1      44.473  18.776  21.444  0.00  0.00    -0.333 OA
BRANCH  15  16
ATOM     16  C   UNL     1      43.201  18.730  21.000  0.00  0.00    +0.514 C 
ATOM     29  O   UNL     1      42.501  17.772  21.261  0.00  0.00    -0.470 OA
BRANCH  16  17
ATOM     17  C   UNL     1      42.660  19.842  20.195  0.00  0.00    -0.099 A 
ATOM     18  C   UNL     1      41.517  19.650  19.416  0.00  0.00    +0.070 A 
ATOM     19  C   UNL     1      41.012  20.693  18.662  0.00  0.00    +0.086 A 
ATOM     22  C   UNL     1      41.642  21.935  18.680  0.00  0.00    +0.094 A 
ATOM     25  C   UNL     1      42.782  22.128  19.456  0.00  0.00    +0.089 A 
ATOM     28  C   UNL     1      43.287  21.091  20.216  0.00  0.00    +0.081 A 
BRANCH  19  20
ATOM     20  O   UNL     1      39.899  20.507  17.903  0.00  0.00    -0.478 OA
ATOM     21  H   UNL     1      39.544  19.608  17.938  0.00  0.00    +0.392 HD
ENDBRANCH  19  20
BRANCH  22  23
ATOM     23  O   UNL     1      41.145  22.959  17.939  0.00  0.00    -0.472 OA
ATOM     24  H   UNL     1      41.276  23.831  18.335  0.00  0.00    +0.392 HD
ENDBRANCH  22  23
BRANCH  25  26
ATOM     26  O   UNL     1      43.395  23.342  19.472  0.00  0.00    -0.478 OA
ATOM     27  H   UNL     1      43.827  23.576  18.639  0.00  0.00    +0.393 HD
ENDBRANCH  25  26
ENDBRANCH  16  17
ENDBRANCH  15  16
ENDBRANCH  14  15
BRANCH  30  31
ATOM     31  C   UNL     1      46.420  19.983  19.657  0.00  0.00    +0.221 C 
BRANCH  31  32
ATOM     32  O   UNL     1      45.983  19.539  18.370  0.00  0.00    -0.560 OA
ATOM     33  H   UNL     1      45.525  20.217  17.856  0.00  0.00    +0.384 HD
ENDBRANCH  31  32
ENDBRANCH  30  31
TORSDOF 16
ENDMDL
MODEL 6
REMARK VINA RESULT:      -6.7      2.360      9.264
REMARK  Name = ZINC95486357
REMARK  16 active torsions:
REMARK  status: ('A' for Active; 'I' for Inactive)
REMARK    1  A    between atoms: C3_3  and  C7_8
REMARK    2  A    between atoms: C5_5  and  O1_7
REMARK    3  A    between atoms: C8_9  and  O5_21
REMARK    4  A    between atoms: C13_15  and  O4_19
REMARK    5  A    between atoms: C15_17  and  O3_18
REMARK    6  A    between atoms: O5_21  and  C17_22
REMARK    7  A    between atoms: C18_24  and  O14_48
REMARK    8  A    between atoms: C19_26  and  O13_47
REMARK    9  A    between atoms: C20_28  and  O8_35
REMARK   10  A    between atoms: C21_30  and  C22_33
REMARK   11  A    between atoms: C22_33  and  O7_34
REMARK   12  A    between atoms: O8_35  and  C23_36
REMARK   13  A    between atoms: C23_36  and  C24_38
REMARK   14  A    between atoms: C26_40  and  O12_46
REMARK   15  A    between atoms: C27_41  and  O11_45
REMARK   16  A    between atoms: C28_42  and  O10_44
REMARK                            x       y       z     vdW  Elec       q    Type
REMARK                         _______ _______ _______ _____ _____    ______ ____
ROOT
ATOM      7  C   UNL     1      48.021  16.165  18.647  0.00  0.00    +0.300 C 
ATOM      8  C   UNL     1      47.497  17.447  17.994  0.00  0.00    +0.153 C 
ATOM     11  C   UNL     1      45.979  17.523  18.187  0.00  0.00    +0.179 C 
ATOM     14  C   UNL     1      45.662  17.463  19.684  0.00  0.00    +0.182 C 
ATOM     30  C   UNL     1      46.258  16.182  20.272  0.00  0.00    +0.197 C 
ATOM     34  O   UNL     1      47.667  16.158  20.031  0.00  0.00    -0.366 OA
ENDROOT
BRANCH   8   9
ATOM      9  O   UNL     1      47.802  17.430  16.597  0.00  0.00    -0.549 OA
ATOM     10  H   UNL     1      48.085  16.566  16.267  0.00  0.00    +0.396 HD
ENDBRANCH   8   9
BRANCH  11  12
ATOM     12  O   UNL     1      45.490  18.751  17.642  0.00  0.00    -0.539 OA
ATOM     13  H   UNL     1      45.044  18.652  16.790  0.00  0.00    +0.392 HD
ENDBRANCH  11  12
BRANCH   7   6
ATOM      6  O   UNL     1      49.444  16.114  18.520  0.00  0.00    -0.283 OA
BRANCH   6   5
ATOM      4  C   UNL     1      50.949  15.815  16.748  0.00  0.00    -0.008 C 
ATOM      5  C   UNL     1      49.947  15.349  17.515  0.00  0.00    +0.004 C 
ATOM     35  C   UNL     1      49.396  14.008  17.262  0.00  0.00    +0.418 C 
ATOM     36  C   UNL     1      50.194  13.083  16.434  0.00  0.00    -0.200 A 
ATOM     37  C   UNL     1      51.235  13.586  15.650  0.00  0.00    -0.000 A 
ATOM     38  C   UNL     1      51.982  12.722  14.894  0.00  0.00    -0.022 A 
ATOM     39  C   UNL     1      51.709  11.359  14.896  0.00  0.00    +0.166 A 
ATOM     42  C   UNL     1      50.670  10.852  15.663  0.00  0.00    -0.044 A 
ATOM     43  C   UNL     1      49.906  11.710  16.436  0.00  0.00    +0.194 A 
ATOM     46  O   UNL     1      48.318  13.672  17.720  0.00  0.00    -0.426 OA
ATOM     47  C   UNL     1      51.542  15.056  15.605  0.00  0.00    +0.185 C 
BRANCH   4   3
ATOM      1  C   UNL     1      52.606  18.653  18.556  0.00  0.00    +0.026 A 
ATOM      2  C   UNL     1      52.103  17.399  18.280  0.00  0.00    +0.031 A 
ATOM      3  C   UNL     1      51.489  17.150  17.047  0.00  0.00    -0.042 A 
ATOM     48  C   UNL     1      51.391  18.175  16.102  0.00  0.00    +0.018 A 
ATOM     49  C   UNL     1      51.901  19.428  16.392  0.00  0.00    +0.105 A 
ATOM     52  C   UNL     1      52.508  19.665  17.619  0.00  0.00    -0.011 A 
BRANCH  49  50
ATOM     50  O   UNL     1      51.809  20.428  15.477  0.00  0.00    -0.499 OA
ATOM     51  H   UNL     1      52.235  20.227  14.632  0.00  0.00    +0.392 HD
ENDBRANCH  49  50
ENDBRANCH   4   3
BRANCH  39  40
ATOM     40  O   UNL     1      52.461  10.520  14.140  0.00  0.00    -0.494 OA
ATOM     41  H   UNL     1      52.655   9.675  14.567  0.00  0.00    +0.401 HD
ENDBRANCH  39  40
BRANCH  43  44
ATOM     44  O   UNL     1      48.887  11.226  17.189  0.00  0.00    -0.481 OA
ATOM     45  H   UNL     1      48.927  11.488  18.120  0.00  0.00    +0.404 HD
ENDBRANCH  43  44
ENDBRANCH   6   5
ENDBRANCH   7   6
BRANCH  14  15
ATOM     15  O   UNL     1      44.246  17.463  19.872  0.00  0.00    -0.333 OA
BRANCH  15  16
ATOM     16  C   UNL     1      43.731  18.445  20.638  0.00  0.00    +0.514 C 
ATOM     29  O   UNL     1      43.792  18.366  21.849  0.00  0.00    -0.470 OA
BRANCH  16  17
ATOM     17  C   UNL     1      43.091  19.614  20.006  0.00  0.00    -0.099 A 
ATOM     18  C   UNL     1      41.913  19.455  19.271  0.00  0.00    +0.070 A 
ATOM     19  C   UNL     1      41.315  20.552  18.680  0.00  0.00    +0.086 A 
ATOM     22  C   UNL     1      41.886  21.815  18.816  0.00  0.00    +0.094 A 
ATOM     25  C   UNL     1      43.060  21.976  19.546  0.00  0.00    +0.089 A 
ATOM     28  C   UNL     1      43.658  20.883  20.146  0.00  0.00    +0.081 A 
BRANCH  19  20
ATOM     20  O   UNL     1      40.169  20.398  17.965  0.00  0.00    -0.478 OA
ATOM     21  H   UNL     1      40.295  19.975  17.104  0.00  0.00    +0.392 HD
ENDBRANCH  19  20
BRANCH  22  23
ATOM     23  O   UNL     1      41.297  22.892  18.233  0.00  0.00    -0.472 OA
ATOM     24  H   UNL     1      41.332  23.696  18.768  0.00  0.00    +0.392 HD
ENDBRANCH  22  23
BRANCH  25  26
ATOM     26  O   UNL     1      43.615  23.210  19.677  0.00  0.00    -0.478 OA
ATOM     27  H   UNL     1      44.568  23.232  19.518  0.00  0.00    +0.393 HD
ENDBRANCH  25  26
ENDBRANCH  16  17
ENDBRANCH  15  16
ENDBRANCH  14  15
BRANCH  30  31
ATOM     31  C   UNL     1      45.997  16.143  21.780  0.00  0.00    +0.221 C 
BRANCH  31  32
ATOM     32  O   UNL     1      44.759  15.473  22.031  0.00  0.00    -0.560 OA
ATOM     33  H   UNL     1      44.187  15.931  22.662  0.00  0.00    +0.384 HD
ENDBRANCH  31  32
ENDBRANCH  30  31
TORSDOF 16
ENDMDL
MODEL 7
REMARK VINA RESULT:      -6.3      2.039      3.168
REMARK  Name = ZINC95486357
REMARK  16 active torsions:
REMARK  status: ('A' for Active; 'I' for Inactive)
REMARK    1  A    between atoms: C3_3  and  C7_8
REMARK    2  A    between atoms: C5_5  and  O1_7
REMARK    3  A    between atoms: C8_9  and  O5_21
REMARK    4  A    between atoms: C13_15  and  O4_19
REMARK    5  A    between atoms: C15_17  and  O3_18
REMARK    6  A    between atoms: O5_21  and  C17_22
REMARK    7  A    between atoms: C18_24  and  O14_48
REMARK    8  A    between atoms: C19_26  and  O13_47
REMARK    9  A    between atoms: C20_28  and  O8_35
REMARK   10  A    between atoms: C21_30  and  C22_33
REMARK   11  A    between atoms: C22_33  and  O7_34
REMARK   12  A    between atoms: O8_35  and  C23_36
REMARK   13  A    between atoms: C23_36  and  C24_38
REMARK   14  A    between atoms: C26_40  and  O12_46
REMARK   15  A    between atoms: C27_41  and  O11_45
REMARK   16  A    between atoms: C28_42  and  O10_44
REMARK                            x       y       z     vdW  Elec       q    Type
REMARK                         _______ _______ _______ _____ _____    ______ ____
ROOT
ATOM      7  C   UNL     1      48.812  17.177  20.245  0.00  0.00    +0.300 C 
ATOM      8  C   UNL     1      50.267  16.813  19.939  0.00  0.00    +0.153 C 
ATOM     11  C   UNL     1      50.295  15.621  18.977  0.00  0.00    +0.179 C 
ATOM     14  C   UNL     1      49.507  15.980  17.713  0.00  0.00    +0.182 C 
ATOM     30  C   UNL     1      48.082  16.377  18.106  0.00  0.00    +0.197 C 
ATOM     34  O   UNL     1      48.128  17.470  19.025  0.00  0.00    -0.366 OA
ENDROOT
BRANCH   8   9
ATOM      9  O   UNL     1      50.938  16.465  21.152  0.00  0.00    -0.549 OA
ATOM     10  H   UNL     1      51.398  15.615  21.118  0.00  0.00    +0.396 HD
ENDBRANCH   8   9
BRANCH  11  12
ATOM     12  O   UNL     1      51.648  15.319  18.629  0.00  0.00    -0.539 OA
ATOM     13  H   UNL     1      51.867  14.379  18.683  0.00  0.00    +0.392 HD
ENDBRANCH  11  12
BRANCH   7   6
ATOM      6  O   UNL     1      48.778  18.323  21.098  0.00  0.00    -0.283 OA
BRANCH   6   5
ATOM      4  C   UNL     1      48.064  20.445  20.405  0.00  0.00    -0.008 C 
ATOM      5  C   UNL     1      47.780  19.221  20.885  0.00  0.00    +0.004 C 
ATOM     35  C   UNL     1      46.384  18.857  21.177  0.00  0.00    +0.418 C 
ATOM     36  C   UNL     1      45.318  19.696  20.595  0.00  0.00    -0.200 A 
ATOM     37  C   UNL     1      45.636  20.962  20.096  0.00  0.00    -0.000 A 
ATOM     38  C   UNL     1      44.647  21.731  19.543  0.00  0.00    -0.022 A 
ATOM     39  C   UNL     1      43.338  21.268  19.482  0.00  0.00    +0.166 A 
ATOM     42  C   UNL     1      43.011  20.017  19.984  0.00  0.00    -0.044 A 
ATOM     43  C   UNL     1      43.999  19.223  20.545  0.00  0.00    +0.194 A 
ATOM     46  O   UNL     1      46.116  17.896  21.877  0.00  0.00    -0.426 OA
ATOM     47  C   UNL     1      47.036  21.504  20.168  0.00  0.00    +0.185 C 
BRANCH   4   3
ATOM      1  C   UNL     1      51.698  21.258  20.854  0.00  0.00    +0.026 A 
ATOM      2  C   UNL     1      50.383  20.960  21.143  0.00  0.00    +0.031 A 
ATOM      3  C   UNL     1      49.467  20.763  20.102  0.00  0.00    -0.042 A 
ATOM     48  C   UNL     1      49.893  20.869  18.775  0.00  0.00    +0.018 A 
ATOM     49  C   UNL     1      51.216  21.169  18.500  0.00  0.00    +0.105 A 
ATOM     52  C   UNL     1      52.116  21.362  19.540  0.00  0.00    -0.011 A 
BRANCH  49  50
ATOM     50  O   UNL     1      51.635  21.272  17.212  0.00  0.00    -0.499 OA
ATOM     51  H   UNL     1      52.583  21.443  17.119  0.00  0.00    +0.392 HD
ENDBRANCH  49  50
ENDBRANCH   4   3
BRANCH  39  40
ATOM     40  O   UNL     1      42.373  22.046  18.930  0.00  0.00    -0.494 OA
ATOM     41  H   UNL     1      42.688  22.909  18.630  0.00  0.00    +0.401 HD
ENDBRANCH  39  40
BRANCH  43  44
ATOM     44  O   UNL     1      43.692  17.999  21.040  0.00  0.00    -0.481 OA
ATOM     45  H   UNL     1      44.025  17.841  21.934  0.00  0.00    +0.404 HD
ENDBRANCH  43  44
ENDBRANCH   6   5
ENDBRANCH   7   6
BRANCH  14  15
ATOM     15  O   UNL     1      49.466  14.852  16.839  0.00  0.00    -0.333 OA
BRANCH  15  16
ATOM     16  C   UNL     1      49.110  13.670  17.381  0.00  0.00    +0.514 C 
ATOM     29  O   UNL     1      49.875  13.087  18.123  0.00  0.00    -0.470 OA
BRANCH  16  17
ATOM     17  C   UNL     1      47.791  13.085  17.073  0.00  0.00    -0.099 A 
ATOM     18  C   UNL     1      46.720  13.275  17.949  0.00  0.00    +0.070 A 
ATOM     19  C   UNL     1      45.485  12.725  17.659  0.00  0.00    +0.086 A 
ATOM     22  C   UNL     1      45.309  11.983  16.493  0.00  0.00    +0.094 A 
ATOM     25  C   UNL     1      46.376  11.792  15.619  0.00  0.00    +0.089 A 
ATOM     28  C   UNL     1      47.610  12.346  15.901  0.00  0.00    +0.081 A 
BRANCH  19  20
ATOM     20  O   UNL     1      44.442  12.909  18.511  0.00  0.00    -0.478 OA
ATOM     21  H   UNL     1      44.700  13.227  19.387  0.00  0.00    +0.392 HD
ENDBRANCH  19  20
BRANCH  22  23
ATOM     23  O   UNL     1      44.095  11.443  16.209  0.00  0.00    -0.472 OA
ATOM     24  H   UNL     1      43.939  10.585  16.627  0.00  0.00    +0.392 HD
ENDBRANCH  22  23
BRANCH  25  26
ATOM     26  O   UNL     1      46.201  11.068  14.481  0.00  0.00    -0.478 OA
ATOM     27  H   UNL     1      45.966  11.598  13.708  0.00  0.00    +0.393 HD
ENDBRANCH  25  26
ENDBRANCH  16  17
ENDBRANCH  15  16
ENDBRANCH  14  15
BRANCH  30  31
ATOM     31  C   UNL     1      47.306  16.795  16.855  0.00  0.00    +0.221 C 
BRANCH  31  32
ATOM     32  O   UNL     1      46.234  17.664  17.228  0.00  0.00    -0.560 OA
ATOM     33  H   UNL     1      46.404  18.175  18.031  0.00  0.00    +0.384 HD
ENDBRANCH  31  32
ENDBRANCH  30  31
TORSDOF 16
ENDMDL
MODEL 8
REMARK VINA RESULT:      -6.3      2.261      9.391
REMARK  Name = ZINC95486357
REMARK  16 active torsions:
REMARK  status: ('A' for Active; 'I' for Inactive)
REMARK    1  A    between atoms: C3_3  and  C7_8
REMARK    2  A    between atoms: C5_5  and  O1_7
REMARK    3  A    between atoms: C8_9  and  O5_21
REMARK    4  A    between atoms: C13_15  and  O4_19
REMARK    5  A    between atoms: C15_17  and  O3_18
REMARK    6  A    between atoms: O5_21  and  C17_22
REMARK    7  A    between atoms: C18_24  and  O14_48
REMARK    8  A    between atoms: C19_26  and  O13_47
REMARK    9  A    between atoms: C20_28  and  O8_35
REMARK   10  A    between atoms: C21_30  and  C22_33
REMARK   11  A    between atoms: C22_33  and  O7_34
REMARK   12  A    between atoms: O8_35  and  C23_36
REMARK   13  A    between atoms: C23_36  and  C24_38
REMARK   14  A    between atoms: C26_40  and  O12_46
REMARK   15  A    between atoms: C27_41  and  O11_45
REMARK   16  A    between atoms: C28_42  and  O10_44
REMARK                            x       y       z     vdW  Elec       q    Type
REMARK                         _______ _______ _______ _____ _____    ______ ____
ROOT
ATOM      7  C   UNL     1      46.662  14.735  19.276  0.00  0.00    +0.300 C 
ATOM      8  C   UNL     1      45.622  14.514  20.378  0.00  0.00    +0.153 C 
ATOM     11  C   UNL     1      45.395  15.833  21.125  0.00  0.00    +0.179 C 
ATOM     14  C   UNL     1      44.961  16.906  20.123  0.00  0.00    +0.182 C 
ATOM     30  C   UNL     1      46.025  17.034  19.030  0.00  0.00    +0.197 C 
ATOM     34  O   UNL     1      46.210  15.766  18.396  0.00  0.00    -0.366 OA
ENDROOT
BRANCH   8   9
ATOM      9  O   UNL     1      46.097  13.522  21.292  0.00  0.00    -0.549 OA
ATOM     10  H   UNL     1      47.014  13.652  21.571  0.00  0.00    +0.396 HD
ENDBRANCH   8   9
BRANCH  11  12
ATOM     12  O   UNL     1      44.375  15.654  22.109  0.00  0.00    -0.539 OA
ATOM     13  H   UNL     1      44.460  14.838  22.621  0.00  0.00    +0.392 HD
ENDBRANCH  11  12
BRANCH   7   6
ATOM      6  O   UNL     1      46.838  13.523  18.539  0.00  0.00    -0.283 OA
BRANCH   6   5
ATOM      4  C   UNL     1      49.134  13.269  18.143  0.00  0.00    -0.008 C 
ATOM      5  C   UNL     1      47.888  13.472  17.678  0.00  0.00    +0.004 C 
ATOM     35  C   UNL     1      47.666  13.637  16.232  0.00  0.00    +0.418 C 
ATOM     36  C   UNL     1      48.744  13.212  15.318  0.00  0.00    -0.200 A 
ATOM     37  C   UNL     1      50.030  13.000  15.823  0.00  0.00    -0.000 A 
ATOM     38  C   UNL     1      51.024  12.590  14.975  0.00  0.00    -0.022 A 
ATOM     39  C   UNL     1      50.765  12.392  13.623  0.00  0.00    +0.166 A 
ATOM     42  C   UNL     1      49.495  12.610  13.111  0.00  0.00    -0.044 A 
ATOM     43  C   UNL     1      48.477  13.021  13.954  0.00  0.00    +0.194 A 
ATOM     46  O   UNL     1      46.629  14.110  15.804  0.00  0.00    -0.426 OA
ATOM     47  C   UNL     1      50.349  13.228  17.274  0.00  0.00    +0.185 C 
BRANCH   4   3
ATOM      1  C   UNL     1      49.139  11.698  21.549  0.00  0.00    +0.026 A 
ATOM      2  C   UNL     1      48.971  11.866  20.191  0.00  0.00    +0.031 A 
ATOM      3  C   UNL     1      49.312  13.084  19.591  0.00  0.00    -0.042 A 
ATOM     48  C   UNL     1      49.822  14.123  20.374  0.00  0.00    +0.018 A 
ATOM     49  C   UNL     1      49.986  13.941  21.737  0.00  0.00    +0.105 A 
ATOM     52  C   UNL     1      49.644  12.728  22.321  0.00  0.00    -0.011 A 
BRANCH  49  50
ATOM     50  O   UNL     1      50.481  14.948  22.502  0.00  0.00    -0.499 OA
ATOM     51  H   UNL     1      49.807  15.557  22.835  0.00  0.00    +0.392 HD
ENDBRANCH  49  50
ENDBRANCH   4   3
BRANCH  39  40
ATOM     40  O   UNL     1      51.765  11.986  12.799  0.00  0.00    -0.494 OA
ATOM     41  H   UNL     1      52.650  12.203  13.119  0.00  0.00    +0.401 HD
ENDBRANCH  39  40
BRANCH  43  44
ATOM     44  O   UNL     1      47.231  13.239  13.466  0.00  0.00    -0.481 OA
ATOM     45  H   UNL     1      46.675  13.788  14.035  0.00  0.00    +0.404 HD
ENDBRANCH  43  44
ENDBRANCH   6   5
ENDBRANCH   7   6
BRANCH  14  15
ATOM     15  O   UNL     1      44.814  18.157  20.796  0.00  0.00    -0.333 OA
BRANCH  15  16
ATOM     16  C   UNL     1      43.557  18.584  21.028  0.00  0.00    +0.514 C 
ATOM     29  O   UNL     1      42.863  18.011  21.845  0.00  0.00    -0.470 OA
BRANCH  16  17
ATOM     17  C   UNL     1      43.024  19.744  20.290  0.00  0.00    -0.099 A 
ATOM     18  C   UNL     1      43.707  20.963  20.315  0.00  0.00    +0.070 A 
ATOM     19  C   UNL     1      43.205  22.049  19.623  0.00  0.00    +0.086 A 
ATOM     22  C   UNL     1      42.021  21.930  18.901  0.00  0.00    +0.094 A 
ATOM     25  C   UNL     1      41.338  20.717  18.875  0.00  0.00    +0.089 A 
ATOM     28  C   UNL     1      41.839  19.625  19.560  0.00  0.00    +0.081 A 
BRANCH  19  20
ATOM     20  O   UNL     1      43.870  23.236  19.646  0.00  0.00    -0.478 OA
ATOM     21  H   UNL     1      44.781  23.183  19.327  0.00  0.00    +0.392 HD
ENDBRANCH  19  20
BRANCH  22  23
ATOM     23  O   UNL     1      41.529  22.999  18.222  0.00  0.00    -0.472 OA
ATOM     24  H   UNL     1      41.057  22.766  17.410  0.00  0.00    +0.392 HD
ENDBRANCH  22  23
BRANCH  25  26
ATOM     26  O   UNL     1      40.181  20.602  18.170  0.00  0.00    -0.478 OA
ATOM     27  H   UNL     1      39.529  21.287  18.369  0.00  0.00    +0.393 HD
ENDBRANCH  25  26
ENDBRANCH  16  17
ENDBRANCH  15  16
ENDBRANCH  14  15
BRANCH  30  31
ATOM     31  C   UNL     1      45.571  18.062  17.992  0.00  0.00    +0.221 C 
BRANCH  31  32
ATOM     32  O   UNL     1      46.200  19.317  18.259  0.00  0.00    -0.560 OA
ATOM     33  H   UNL     1      46.835  19.589  17.583  0.00  0.00    +0.384 HD
ENDBRANCH  31  32
ENDBRANCH  30  31
TORSDOF 16
ENDMDL
MODEL 9
REMARK VINA RESULT:      -6.3      1.862      2.788
REMARK  Name = ZINC95486357
REMARK  16 active torsions:
REMARK  status: ('A' for Active; 'I' for Inactive)
REMARK    1  A    between atoms: C3_3  and  C7_8
REMARK    2  A    between atoms: C5_5  and  O1_7
REMARK    3  A    between atoms: C8_9  and  O5_21
REMARK    4  A    between atoms: C13_15  and  O4_19
REMARK    5  A    between atoms: C15_17  and  O3_18
REMARK    6  A    between atoms: O5_21  and  C17_22
REMARK    7  A    between atoms: C18_24  and  O14_48
REMARK    8  A    between atoms: C19_26  and  O13_47
REMARK    9  A    between atoms: C20_28  and  O8_35
REMARK   10  A    between atoms: C21_30  and  C22_33
REMARK   11  A    between atoms: C22_33  and  O7_34
REMARK   12  A    between atoms: O8_35  and  C23_36
REMARK   13  A    between atoms: C23_36  and  C24_38
REMARK   14  A    between atoms: C26_40  and  O12_46
REMARK   15  A    between atoms: C27_41  and  O11_45
REMARK   16  A    between atoms: C28_42  and  O10_44
REMARK                            x       y       z     vdW  Elec       q    Type
REMARK                         _______ _______ _______ _____ _____    ______ ____
ROOT
ATOM      7  C   UNL     1      48.860  17.097  20.034  0.00  0.00    +0.300 C 
ATOM      8  C   UNL     1      50.148  17.165  19.209  0.00  0.00    +0.153 C 
ATOM     11  C   UNL     1      50.162  16.009  18.205  0.00  0.00    +0.179 C 
ATOM     14  C   UNL     1      48.908  16.090  17.330  0.00  0.00    +0.182 C 
ATOM     30  C   UNL     1      47.668  16.064  18.228  0.00  0.00    +0.197 C 
ATOM     34  O   UNL     1      47.731  17.147  19.158  0.00  0.00    -0.366 OA
ENDROOT
BRANCH   8   9
ATOM      9  O   UNL     1      51.278  17.060  20.078  0.00  0.00    -0.549 OA
ATOM     10  H   UNL     1      51.357  17.787  20.710  0.00  0.00    +0.396 HD
ENDBRANCH   8   9
BRANCH  11  12
ATOM     12  O   UNL     1      51.327  16.105  17.383  0.00  0.00    -0.539 OA
ATOM     13  H   UNL     1      51.161  15.940  16.444  0.00  0.00    +0.392 HD
ENDBRANCH  11  12
BRANCH   7   6
ATOM      6  O   UNL     1      48.813  18.206  20.935  0.00  0.00    -0.283 OA
BRANCH   6   5
ATOM      4  C   UNL     1      48.082  20.335  20.281  0.00  0.00    -0.008 C 
ATOM      5  C   UNL     1      47.810  19.106  20.754  0.00  0.00    +0.004 C 
ATOM     35  C   UNL     1      46.421  18.738  21.074  0.00  0.00    +0.418 C 
ATOM     36  C   UNL     1      45.342  19.583  20.525  0.00  0.00    -0.200 A 
ATOM     37  C   UNL     1      45.649  20.854  20.033  0.00  0.00    -0.000 A 
ATOM     38  C   UNL     1      44.647  21.629  19.511  0.00  0.00    -0.022 A 
ATOM     39  C   UNL     1      43.337  21.165  19.475  0.00  0.00    +0.166 A 
ATOM     42  C   UNL     1      43.022  19.908  19.970  0.00  0.00    -0.044 A 
ATOM     43  C   UNL     1      44.022  19.110  20.499  0.00  0.00    +0.194 A 
ATOM     46  O   UNL     1      46.170  17.769  21.769  0.00  0.00    -0.426 OA
ATOM     47  C   UNL     1      47.049  21.395  20.080  0.00  0.00    +0.185 C 
BRANCH   4   3
ATOM      1  C   UNL     1      51.742  21.068  20.653  0.00  0.00    +0.026 A 
ATOM      2  C   UNL     1      50.434  20.766  20.968  0.00  0.00    +0.031 A 
ATOM      3  C   UNL     1      49.479  20.657  19.951  0.00  0.00    -0.042 A 
ATOM     48  C   UNL     1      49.858  20.855  18.620  0.00  0.00    +0.018 A 
ATOM     49  C   UNL     1      51.174  21.158  18.318  0.00  0.00    +0.105 A 
ATOM     52  C   UNL     1      52.115  21.263  19.335  0.00  0.00    -0.011 A 
BRANCH  49  50
ATOM     50  O   UNL     1      51.548  21.351  17.026  0.00  0.00    -0.499 OA
ATOM     51  H   UNL     1      50.806  21.460  16.415  0.00  0.00    +0.392 HD
ENDBRANCH  49  50
ENDBRANCH   4   3
BRANCH  39  40
ATOM     40  O   UNL     1      42.359  21.949  18.953  0.00  0.00    -0.494 OA
ATOM     41  H   UNL     1      41.823  22.402  19.618  0.00  0.00    +0.401 HD
ENDBRANCH  39  40
BRANCH  43  44
ATOM     44  O   UNL     1      43.727  17.880  20.988  0.00  0.00    -0.481 OA
ATOM     45  H   UNL     1      43.624  17.200  20.308  0.00  0.00    +0.404 HD
ENDBRANCH  43  44
ENDBRANCH   6   5
ENDBRANCH   7   6
BRANCH  14  15
ATOM     15  O   UNL     1      48.875  14.975  16.437  0.00  0.00    -0.333 OA
BRANCH  15  16
ATOM     16  C   UNL     1      49.210  13.773  16.946  0.00  0.00    +0.514 C 
ATOM     29  O   UNL     1      48.604  13.328  17.900  0.00  0.00    -0.470 OA
BRANCH  16  17
ATOM     17  C   UNL     1      50.314  13.000  16.346  0.00  0.00    -0.099 A 
ATOM     18  C   UNL     1      50.444  12.929  14.957  0.00  0.00    +0.070 A 
ATOM     19  C   UNL     1      51.479  12.204  14.397  0.00  0.00    +0.086 A 
ATOM     22  C   UNL     1      52.391  11.544  15.216  0.00  0.00    +0.094 A 
ATOM     25  C   UNL     1      52.263  11.612  16.601  0.00  0.00    +0.089 A 
ATOM     28  C   UNL     1      51.234  12.342  17.166  0.00  0.00    +0.081 A 
BRANCH  19  20
ATOM     20  O   UNL     1      51.606  12.134  13.045  0.00  0.00    -0.478 OA
ATOM     21  H   UNL     1      50.764  12.105  12.571  0.00  0.00    +0.392 HD
ENDBRANCH  19  20
BRANCH  22  23
ATOM     23  O   UNL     1      53.407  10.830  14.664  0.00  0.00    -0.472 OA
ATOM     24  H   UNL     1      53.934  11.328  14.024  0.00  0.00    +0.392 HD
ENDBRANCH  22  23
BRANCH  25  26
ATOM     26  O   UNL     1      53.155  10.966  17.399  0.00  0.00    -0.478 OA
ATOM     27  H   UNL     1      53.511  10.154  17.015  0.00  0.00    +0.393 HD
ENDBRANCH  25  26
ENDBRANCH  16  17
ENDBRANCH  15  16
ENDBRANCH  14  15
BRANCH  30  31
ATOM     31  C   UNL     1      46.411  16.205  17.366  0.00  0.00    +0.221 C 
BRANCH  31  32
ATOM     32  O   UNL     1      46.764  16.757  16.096  0.00  0.00    -0.560 OA
ATOM     33  H   UNL     1      47.703  16.971  16.008  0.00  0.00    +0.384 HD
ENDBRANCH  31  32
ENDBRANCH  30  31
TORSDOF 16
ENDMDL
