MODEL 1
REMARK VINA RESULT:      -5.4      0.000      0.000
REMARK  Name = ZINC95486135
REMARK  7 active torsions:
REMARK  status: ('A' for Active; 'I' for Inactive)
REMARK    1  A    between atoms: C1_1  and  O1_2
REMARK    2  A    between atoms: O1_2  and  C2_3
REMARK    3  A    between atoms: C7_8  and  O2_9
REMARK    4  A    between atoms: C8_10  and  O4_25
REMARK    5  A    between atoms: C12_16  and  O3_23
REMARK    6  A    between atoms: O3_23  and  C18_24
REMARK    7  A    between atoms: O4_25  and  C19_26
REMARK                            x       y       z     vdW  Elec       q    Type
REMARK                         _______ _______ _______ _____ _____    ______ ____
ROOT
ATOM      3  C   UNL     1      42.133  19.542  20.527  0.00  0.00    +0.106 A 
ATOM      4  C   UNL     1      43.476  19.852  20.374  0.00  0.00    -0.054 A 
ATOM      5  C   UNL     1      44.464  19.119  21.014  0.00  0.00    -0.039 A 
ATOM      6  C   UNL     1      44.078  18.046  21.794  0.00  0.00    -0.106 A 
ATOM      7  C   UNL     1      45.079  17.185  22.505  0.00  0.00    +0.207 C 
ATOM     10  C   UNL     1      46.465  17.293  21.945  0.00  0.00    +0.197 C 
ATOM     11  N   UNL     1      46.845  18.494  21.267  0.00  0.00    -0.536 NA
ATOM     12  C   UNL     1      47.630  18.130  20.057  0.00  0.00    +0.243 C 
ATOM     13  C   UNL     1      47.181  19.067  18.959  0.00  0.00    -0.003 C 
ATOM     14  C   UNL     1      46.231  19.852  19.418  0.00  0.00    -0.117 C 
ATOM     15  C   UNL     1      45.576  20.978  18.723  0.00  0.00    +0.058 C 
ATOM     16  C   UNL     1      45.225  21.994  19.519  0.00  0.00    -0.057 C 
ATOM     17  C   UNL     1      45.469  22.016  20.988  0.00  0.00    +0.192 C 
ATOM     20  C   UNL     1      46.122  20.820  21.631  0.00  0.00    +0.072 C 
ATOM     21  C   UNL     1      42.732  17.718  21.943  0.00  0.00    +0.061 A 
ATOM     22  C   UNL     1      45.908  19.512  20.859  0.00  0.00    +0.218 C 
ATOM     23  C   UNL     1      41.760  18.453  21.300  0.00  0.00    +0.078 A 
ENDROOT
BRANCH   3   2
ATOM      1  C   UNL     1      41.604  21.012  18.728  0.00  0.00    +0.236 C 
ATOM      2  O   UNL     1      41.191  20.303  19.898  0.00  0.00    -0.305 OA
ENDBRANCH   3   2
BRANCH   7   8
ATOM      8  O   UNL     1      44.664  15.819  22.395  0.00  0.00    -0.378 OA
ATOM      9  C   UNL     1      45.194  15.141  21.255  0.00  0.00    +0.206 C 
ENDBRANCH   7   8
BRANCH  17  18
ATOM     18  O   UNL     1      46.293  23.153  21.250  0.00  0.00    -0.378 OA
ATOM     19  C   UNL     1      47.407  22.879  22.102  0.00  0.00    +0.200 C 
ENDBRANCH  17  18
BRANCH  23  24
ATOM     24  O   UNL     1      40.448  18.092  21.393  0.00  0.00    -0.487 OA
ATOM     25  H   UNL     1      39.859  18.813  21.651  0.00  0.00    +0.389 HD
ENDBRANCH  23  24
TORSDOF 4
ENDMDL
MODEL 2
REMARK VINA RESULT:      -5.2      2.060      4.882
REMARK  Name = ZINC95486135
REMARK  7 active torsions:
REMARK  status: ('A' for Active; 'I' for Inactive)
REMARK    1  A    between atoms: C1_1  and  O1_2
REMARK    2  A    between atoms: O1_2  and  C2_3
REMARK    3  A    between atoms: C7_8  and  O2_9
REMARK    4  A    between atoms: C8_10  and  O4_25
REMARK    5  A    between atoms: C12_16  and  O3_23
REMARK    6  A    between atoms: O3_23  and  C18_24
REMARK    7  A    between atoms: O4_25  and  C19_26
REMARK                            x       y       z     vdW  Elec       q    Type
REMARK                         _______ _______ _______ _____ _____    ______ ____
ROOT
ATOM      3  C   UNL     1      43.357  17.884  21.419  0.00  0.00    +0.106 A 
ATOM      4  C   UNL     1      44.548  17.894  20.709  0.00  0.00    -0.054 A 
ATOM      5  C   UNL     1      44.919  18.984  19.937  0.00  0.00    -0.039 A 
ATOM      6  C   UNL     1      44.080  20.082  19.913  0.00  0.00    -0.106 A 
ATOM      7  C   UNL     1      44.412  21.314  19.124  0.00  0.00    +0.207 C 
ATOM     10  C   UNL     1      45.866  21.426  18.773  0.00  0.00    +0.197 C 
ATOM     11  N   UNL     1      46.647  20.231  18.678  0.00  0.00    -0.536 NA
ATOM     12  C   UNL     1      47.970  20.475  19.313  0.00  0.00    +0.243 C 
ATOM     13  C   UNL     1      48.316  19.218  20.077  0.00  0.00    -0.003 C 
ATOM     14  C   UNL     1      47.330  18.355  19.964  0.00  0.00    -0.117 C 
ATOM     15  C   UNL     1      47.284  16.966  20.463  0.00  0.00    +0.058 C 
ATOM     16  C   UNL     1      46.595  16.120  19.690  0.00  0.00    -0.057 C 
ATOM     17  C   UNL     1      45.927  16.518  18.419  0.00  0.00    +0.192 C 
ATOM     20  C   UNL     1      45.997  17.958  17.986  0.00  0.00    +0.072 C 
ATOM     21  C   UNL     1      42.888  20.087  20.635  0.00  0.00    +0.061 A 
ATOM     22  C   UNL     1      46.198  18.943  19.145  0.00  0.00    +0.218 C 
ATOM     23  C   UNL     1      42.532  18.998  21.399  0.00  0.00    +0.078 A 
ENDROOT
BRANCH   3   2
ATOM      1  C   UNL     1      44.076  15.889  22.505  0.00  0.00    +0.236 C 
ATOM      2  O   UNL     1      43.018  16.781  22.147  0.00  0.00    -0.305 OA
ENDBRANCH   3   2
BRANCH   7   8
ATOM      8  O   UNL     1      44.057  22.462  19.902  0.00  0.00    -0.378 OA
ATOM      9  C   UNL     1      45.133  22.994  20.677  0.00  0.00    +0.206 C 
ENDBRANCH   7   8
BRANCH  17  18
ATOM     18  O   UNL     1      46.507  15.724  17.383  0.00  0.00    -0.378 OA
ATOM     19  C   UNL     1      46.626  14.338  17.711  0.00  0.00    +0.200 C 
ENDBRANCH  17  18
BRANCH  23  24
ATOM     24  O   UNL     1      41.399  19.028  22.157  0.00  0.00    -0.487 OA
ATOM     25  H   UNL     1      41.556  19.200  23.095  0.00  0.00    +0.389 HD
ENDBRANCH  23  24
TORSDOF 4
ENDMDL
MODEL 3
REMARK VINA RESULT:      -5.2      4.366      5.967
REMARK  Name = ZINC95486135
REMARK  7 active torsions:
REMARK  status: ('A' for Active; 'I' for Inactive)
REMARK    1  A    between atoms: C1_1  and  O1_2
REMARK    2  A    between atoms: O1_2  and  C2_3
REMARK    3  A    between atoms: C7_8  and  O2_9
REMARK    4  A    between atoms: C8_10  and  O4_25
REMARK    5  A    between atoms: C12_16  and  O3_23
REMARK    6  A    between atoms: O3_23  and  C18_24
REMARK    7  A    between atoms: O4_25  and  C19_26
REMARK                            x       y       z     vdW  Elec       q    Type
REMARK                         _______ _______ _______ _____ _____    ______ ____
ROOT
ATOM      3  C   UNL     1      47.382  18.984  19.149  0.00  0.00    +0.106 A 
ATOM      4  C   UNL     1      48.708  19.192  18.804  0.00  0.00    -0.054 A 
ATOM      5  C   UNL     1      49.502  18.160  18.327  0.00  0.00    -0.039 A 
ATOM      6  C   UNL     1      48.927  16.912  18.176  0.00  0.00    -0.106 A 
ATOM      7  C   UNL     1      49.703  15.743  17.646  0.00  0.00    +0.207 C 
ATOM     10  C   UNL     1      50.939  16.138  16.894  0.00  0.00    +0.197 C 
ATOM     11  N   UNL     1      51.565  17.387  17.200  0.00  0.00    -0.536 NA
ATOM     12  C   UNL     1      51.981  18.036  15.928  0.00  0.00    +0.243 C 
ATOM     13  C   UNL     1      51.681  19.510  16.082  0.00  0.00    -0.003 C 
ATOM     14  C   UNL     1      51.121  19.720  17.253  0.00  0.00    -0.117 C 
ATOM     15  C   UNL     1      50.756  21.015  17.859  0.00  0.00    +0.058 C 
ATOM     16  C   UNL     1      50.884  21.062  19.189  0.00  0.00    -0.057 C 
ATOM     17  C   UNL     1      51.362  19.919  20.016  0.00  0.00    +0.192 C 
ATOM     20  C   UNL     1      51.694  18.620  19.329  0.00  0.00    +0.072 C 
ATOM     21  C   UNL     1      47.591  16.696  18.507  0.00  0.00    +0.061 A 
ATOM     22  C   UNL     1      50.949  18.414  18.004  0.00  0.00    +0.218 C 
ATOM     23  C   UNL     1      46.813  17.731  18.978  0.00  0.00    +0.078 A 
ENDROOT
BRANCH   3   2
ATOM      1  C   UNL     1      46.163  20.979  18.690  0.00  0.00    +0.236 C 
ATOM      2  O   UNL     1      46.642  20.021  19.637  0.00  0.00    -0.305 OA
ENDBRANCH   3   2
BRANCH   7   8
ATOM      8  O   UNL     1      48.861  15.005  16.754  0.00  0.00    -0.378 OA
ATOM      9  C   UNL     1      49.424  13.768  16.315  0.00  0.00    +0.206 C 
ENDBRANCH   7   8
BRANCH  17  18
ATOM     18  O   UNL     1      52.537  20.364  20.694  0.00  0.00    -0.378 OA
ATOM     19  C   UNL     1      52.536  21.759  21.003  0.00  0.00    +0.200 C 
ENDBRANCH  17  18
BRANCH  23  24
ATOM     24  O   UNL     1      45.489  17.534  19.239  0.00  0.00    -0.487 OA
ATOM     25  H   UNL     1      45.112  18.169  19.863  0.00  0.00    +0.389 HD
ENDBRANCH  23  24
TORSDOF 4
ENDMDL
MODEL 4
REMARK VINA RESULT:      -5.1      2.088      4.634
REMARK  Name = ZINC95486135
REMARK  7 active torsions:
REMARK  status: ('A' for Active; 'I' for Inactive)
REMARK    1  A    between atoms: C1_1  and  O1_2
REMARK    2  A    between atoms: O1_2  and  C2_3
REMARK    3  A    between atoms: C7_8  and  O2_9
REMARK    4  A    between atoms: C8_10  and  O4_25
REMARK    5  A    between atoms: C12_16  and  O3_23
REMARK    6  A    between atoms: O3_23  and  C18_24
REMARK    7  A    between atoms: O4_25  and  C19_26
REMARK                            x       y       z     vdW  Elec       q    Type
REMARK                         _______ _______ _______ _____ _____    ______ ____
ROOT
ATOM      3  C   UNL     1      46.110  17.605  21.186  0.00  0.00    +0.106 A 
ATOM      4  C   UNL     1      46.495  18.911  20.926  0.00  0.00    -0.054 A 
ATOM      5  C   UNL     1      45.635  19.809  20.311  0.00  0.00    -0.039 A 
ATOM      6  C   UNL     1      44.364  19.375  19.985  0.00  0.00    -0.106 A 
ATOM      7  C   UNL     1      43.360  20.283  19.339  0.00  0.00    +0.207 C 
ATOM     10  C   UNL     1      43.677  21.739  19.505  0.00  0.00    +0.197 C 
ATOM     11  N   UNL     1      45.038  22.132  19.701  0.00  0.00    -0.536 NA
ATOM     12  C   UNL     1      45.084  23.189  20.747  0.00  0.00    +0.243 C 
ATOM     13  C   UNL     1      46.294  22.892  21.602  0.00  0.00    -0.003 C 
ATOM     14  C   UNL     1      46.872  21.793  21.172  0.00  0.00    -0.117 C 
ATOM     15  C   UNL     1      48.135  21.192  21.646  0.00  0.00    +0.058 C 
ATOM     16  C   UNL     1      48.850  20.578  20.697  0.00  0.00    -0.057 C 
ATOM     17  C   UNL     1      48.434  20.501  19.268  0.00  0.00    +0.192 C 
ATOM     20  C   UNL     1      47.121  21.118  18.863  0.00  0.00    +0.072 C 
ATOM     21  C   UNL     1      43.964  18.068  20.255  0.00  0.00    +0.061 A 
ATOM     22  C   UNL     1      46.102  21.206  20.006  0.00  0.00    +0.218 C 
ATOM     23  C   UNL     1      44.827  17.187  20.869  0.00  0.00    +0.078 A 
ENDROOT
BRANCH   3   2
ATOM      1  C   UNL     1      48.090  17.328  22.483  0.00  0.00    +0.236 C 
ATOM      2  O   UNL     1      46.995  16.747  21.771  0.00  0.00    -0.305 OA
ENDBRANCH   3   2
BRANCH   7   8
ATOM      8  O   UNL     1      42.080  20.040  19.931  0.00  0.00    -0.378 OA
ATOM      9  C   UNL     1      40.983  20.201  19.030  0.00  0.00    +0.206 C 
ENDBRANCH   7   8
BRANCH  17  18
ATOM     18  O   UNL     1      49.464  21.132  18.505  0.00  0.00    -0.378 OA
ATOM     19  C   UNL     1      50.788  20.776  18.911  0.00  0.00    +0.200 C 
ENDBRANCH  17  18
BRANCH  23  24
ATOM     24  O   UNL     1      44.413  15.928  21.192  0.00  0.00    -0.487 OA
ATOM     25  H   UNL     1      43.699  15.593  20.633  0.00  0.00    +0.389 HD
ENDBRANCH  23  24
TORSDOF 4
ENDMDL
MODEL 5
REMARK VINA RESULT:      -5.1      3.789      6.508
REMARK  Name = ZINC95486135
REMARK  7 active torsions:
REMARK  status: ('A' for Active; 'I' for Inactive)
REMARK    1  A    between atoms: C1_1  and  O1_2
REMARK    2  A    between atoms: O1_2  and  C2_3
REMARK    3  A    between atoms: C7_8  and  O2_9
REMARK    4  A    between atoms: C8_10  and  O4_25
REMARK    5  A    between atoms: C12_16  and  O3_23
REMARK    6  A    between atoms: O3_23  and  C18_24
REMARK    7  A    between atoms: O4_25  and  C19_26
REMARK                            x       y       z     vdW  Elec       q    Type
REMARK                         _______ _______ _______ _____ _____    ______ ____
ROOT
ATOM      3  C   UNL     1      50.707  20.054  18.080  0.00  0.00    +0.106 A 
ATOM      4  C   UNL     1      49.495  19.788  18.696  0.00  0.00    -0.054 A 
ATOM      5  C   UNL     1      48.801  18.613  18.451  0.00  0.00    -0.039 A 
ATOM      6  C   UNL     1      49.366  17.690  17.591  0.00  0.00    -0.106 A 
ATOM      7  C   UNL     1      48.698  16.382  17.285  0.00  0.00    +0.207 C 
ATOM     10  C   UNL     1      47.668  15.986  18.299  0.00  0.00    +0.197 C 
ATOM     11  N   UNL     1      47.019  17.008  19.061  0.00  0.00    -0.536 NA
ATOM     12  C   UNL     1      46.907  16.553  20.472  0.00  0.00    +0.243 C 
ATOM     13  C   UNL     1      47.200  17.759  21.335  0.00  0.00    -0.003 C 
ATOM     14  C   UNL     1      47.494  18.783  20.565  0.00  0.00    -0.117 C 
ATOM     15  C   UNL     1      47.747  20.178  20.977  0.00  0.00    +0.058 C 
ATOM     16  C   UNL     1      47.332  21.100  20.102  0.00  0.00    -0.057 C 
ATOM     17  C   UNL     1      46.657  20.775  18.814  0.00  0.00    +0.192 C 
ATOM     20  C   UNL     1      46.454  19.327  18.451  0.00  0.00    +0.072 C 
ATOM     21  C   UNL     1      50.592  17.942  16.977  0.00  0.00    +0.061 A 
ATOM     22  C   UNL     1      47.467  18.378  19.105  0.00  0.00    +0.218 C 
ATOM     23  C   UNL     1      51.271  19.113  17.231  0.00  0.00    +0.078 A 
ENDROOT
BRANCH   3   2
ATOM      1  C   UNL     1      52.051  21.340  19.569  0.00  0.00    +0.236 C 
ATOM      2  O   UNL     1      51.346  21.233  18.330  0.00  0.00    -0.305 OA
ENDBRANCH   3   2
BRANCH   7   8
ATOM      8  O   UNL     1      49.698  15.359  17.249  0.00  0.00    -0.378 OA
ATOM      9  C   UNL     1      49.292  14.173  16.564  0.00  0.00    +0.206 C 
ENDBRANCH   7   8
BRANCH  17  18
ATOM     18  O   UNL     1      45.372  21.397  18.854  0.00  0.00    -0.378 OA
ATOM     19  C   UNL     1      44.310  20.513  19.219  0.00  0.00    +0.200 C 
ENDBRANCH  17  18
BRANCH  23  24
ATOM     24  O   UNL     1      52.500  19.329  16.682  0.00  0.00    -0.487 OA
ATOM     25  H   UNL     1      52.691  20.259  16.499  0.00  0.00    +0.389 HD
ENDBRANCH  23  24
TORSDOF 4
ENDMDL
MODEL 6
REMARK VINA RESULT:      -4.8      3.734      7.331
REMARK  Name = ZINC95486135
REMARK  7 active torsions:
REMARK  status: ('A' for Active; 'I' for Inactive)
REMARK    1  A    between atoms: C1_1  and  O1_2
REMARK    2  A    between atoms: O1_2  and  C2_3
REMARK    3  A    between atoms: C7_8  and  O2_9
REMARK    4  A    between atoms: C8_10  and  O4_25
REMARK    5  A    between atoms: C12_16  and  O3_23
REMARK    6  A    between atoms: O3_23  and  C18_24
REMARK    7  A    between atoms: O4_25  and  C19_26
REMARK                            x       y       z     vdW  Elec       q    Type
REMARK                         _______ _______ _______ _____ _____    ______ ____
ROOT
ATOM      3  C   UNL     1      50.994  19.276  17.889  0.00  0.00    +0.106 A 
ATOM      4  C   UNL     1      50.092  18.242  18.088  0.00  0.00    -0.054 A 
ATOM      5  C   UNL     1      48.937  18.424  18.833  0.00  0.00    -0.039 A 
ATOM      6  C   UNL     1      48.689  19.679  19.355  0.00  0.00    -0.106 A 
ATOM      7  C   UNL     1      47.454  19.973  20.154  0.00  0.00    +0.207 C 
ATOM     10  C   UNL     1      46.354  18.976  19.943  0.00  0.00    +0.197 C 
ATOM     11  N   UNL     1      46.694  17.648  19.535  0.00  0.00    -0.536 NA
ATOM     12  C   UNL     1      45.725  17.204  18.498  0.00  0.00    +0.243 C 
ATOM     13  C   UNL     1      46.524  16.447  17.462  0.00  0.00    -0.003 C 
ATOM     14  C   UNL     1      47.796  16.468  17.793  0.00  0.00    -0.117 C 
ATOM     15  C   UNL     1      48.914  15.774  17.123  0.00  0.00    +0.058 C 
ATOM     16  C   UNL     1      49.883  15.358  17.946  0.00  0.00    -0.057 C 
ATOM     17  C   UNL     1      49.857  15.558  19.422  0.00  0.00    +0.192 C 
ATOM     20  C   UNL     1      48.693  16.296  20.031  0.00  0.00    +0.072 C 
ATOM     21  C   UNL     1      49.582  20.728  19.148  0.00  0.00    +0.061 A 
ATOM     22  C   UNL     1      48.003  17.267  19.064  0.00  0.00    +0.218 C 
ATOM     23  C   UNL     1      50.725  20.535  18.404  0.00  0.00    +0.078 A 
ENDROOT
BRANCH   3   2
ATOM      1  C   UNL     1      52.012  19.066  15.745  0.00  0.00    +0.236 C 
ATOM      2  O   UNL     1      52.131  19.049  17.169  0.00  0.00    -0.305 OA
ENDBRANCH   3   2
BRANCH   7   8
ATOM      8  O   UNL     1      46.960  21.261  19.771  0.00  0.00    -0.378 OA
ATOM      9  C   UNL     1      45.876  21.215  18.841  0.00  0.00    +0.206 C 
ENDBRANCH   7   8
BRANCH  17  18
ATOM     18  O   UNL     1      49.905  14.259  20.014  0.00  0.00    -0.378 OA
ATOM     19  C   UNL     1      48.619  13.703  20.299  0.00  0.00    +0.200 C 
ENDBRANCH  17  18
BRANCH  23  24
ATOM     24  O   UNL     1      51.565  21.578  18.148  0.00  0.00    -0.487 OA
ATOM     25  H   UNL     1      51.116  22.427  18.036  0.00  0.00    +0.389 HD
ENDBRANCH  23  24
TORSDOF 4
ENDMDL
MODEL 7
REMARK VINA RESULT:      -4.6      2.403      5.259
REMARK  Name = ZINC95486135
REMARK  7 active torsions:
REMARK  status: ('A' for Active; 'I' for Inactive)
REMARK    1  A    between atoms: C1_1  and  O1_2
REMARK    2  A    between atoms: O1_2  and  C2_3
REMARK    3  A    between atoms: C7_8  and  O2_9
REMARK    4  A    between atoms: C8_10  and  O4_25
REMARK    5  A    between atoms: C12_16  and  O3_23
REMARK    6  A    between atoms: O3_23  and  C18_24
REMARK    7  A    between atoms: O4_25  and  C19_26
REMARK                            x       y       z     vdW  Elec       q    Type
REMARK                         _______ _______ _______ _____ _____    ______ ____
ROOT
ATOM      3  C   UNL     1      48.138  20.751  20.642  0.00  0.00    +0.106 A 
ATOM      4  C   UNL     1      46.944  20.052  20.556  0.00  0.00    -0.054 A 
ATOM      5  C   UNL     1      46.775  19.019  19.647  0.00  0.00    -0.039 A 
ATOM      6  C   UNL     1      47.844  18.680  18.839  0.00  0.00    -0.106 A 
ATOM      7  C   UNL     1      47.759  17.561  17.843  0.00  0.00    +0.207 C 
ATOM     10  C   UNL     1      46.645  16.597  18.121  0.00  0.00    +0.197 C 
ATOM     11  N   UNL     1      45.500  17.055  18.846  0.00  0.00    -0.536 NA
ATOM     12  C   UNL     1      45.102  16.004  19.820  0.00  0.00    +0.243 C 
ATOM     13  C   UNL     1      44.709  16.725  21.089  0.00  0.00    -0.003 C 
ATOM     14  C   UNL     1      44.887  18.018  20.928  0.00  0.00    -0.117 C 
ATOM     15  C   UNL     1      44.540  19.101  21.870  0.00  0.00    +0.058 C 
ATOM     16  C   UNL     1      44.150  20.240  21.288  0.00  0.00    -0.057 C 
ATOM     17  C   UNL     1      44.055  20.425  19.812  0.00  0.00    +0.192 C 
ATOM     20  C   UNL     1      44.448  19.281  18.914  0.00  0.00    +0.072 C 
ATOM     21  C   UNL     1      49.053  19.367  18.928  0.00  0.00    +0.061 A 
ATOM     22  C   UNL     1      45.451  18.311  19.552  0.00  0.00    +0.218 C 
ATOM     23  C   UNL     1      49.208  20.390  19.837  0.00  0.00    +0.078 A 
ENDROOT
BRANCH   3   2
ATOM      1  C   UNL     1      47.091  22.575  21.761  0.00  0.00    +0.236 C 
ATOM      2  O   UNL     1      48.255  21.777  21.534  0.00  0.00    -0.305 OA
ENDBRANCH   3   2
BRANCH   7   8
ATOM      8  O   UNL     1      48.991  16.832  17.873  0.00  0.00    -0.378 OA
ATOM      9  C   UNL     1      48.902  15.567  18.531  0.00  0.00    +0.206 C 
ENDBRANCH   7   8
BRANCH  17  18
ATOM     18  O   UNL     1      42.695  20.754  19.525  0.00  0.00    -0.378 OA
ATOM     19  C   UNL     1      41.821  19.624  19.482  0.00  0.00    +0.200 C 
ENDBRANCH  17  18
BRANCH  23  24
ATOM     24  O   UNL     1      50.411  21.019  19.969  0.00  0.00    -0.487 OA
ATOM     25  H   UNL     1      50.824  20.901  20.835  0.00  0.00    +0.389 HD
ENDBRANCH  23  24
TORSDOF 4
ENDMDL
MODEL 8
REMARK VINA RESULT:      -4.6      3.480      7.047
REMARK  Name = ZINC95486135
REMARK  7 active torsions:
REMARK  status: ('A' for Active; 'I' for Inactive)
REMARK    1  A    between atoms: C1_1  and  O1_2
REMARK    2  A    between atoms: O1_2  and  C2_3
REMARK    3  A    between atoms: C7_8  and  O2_9
REMARK    4  A    between atoms: C8_10  and  O4_25
REMARK    5  A    between atoms: C12_16  and  O3_23
REMARK    6  A    between atoms: O3_23  and  C18_24
REMARK    7  A    between atoms: O4_25  and  C19_26
REMARK                            x       y       z     vdW  Elec       q    Type
REMARK                         _______ _______ _______ _____ _____    ______ ____
ROOT
ATOM      3  C   UNL     1      50.737  19.760  17.969  0.00  0.00    +0.106 A 
ATOM      4  C   UNL     1      49.633  18.939  18.131  0.00  0.00    -0.054 A 
ATOM      5  C   UNL     1      48.803  19.051  19.236  0.00  0.00    -0.039 A 
ATOM      6  C   UNL     1      49.091  20.029  20.169  0.00  0.00    -0.106 A 
ATOM      7  C   UNL     1      48.236  20.238  21.384  0.00  0.00    +0.207 C 
ATOM     10  C   UNL     1      46.863  19.648  21.258  0.00  0.00    +0.197 C 
ATOM     11  N   UNL     1      46.665  18.542  20.373  0.00  0.00    -0.536 NA
ATOM     12  C   UNL     1      45.388  18.743  19.636  0.00  0.00    +0.243 C 
ATOM     13  C   UNL     1      45.641  18.299  18.214  0.00  0.00    -0.003 C 
ATOM     14  C   UNL     1      46.897  17.929  18.090  0.00  0.00    -0.117 C 
ATOM     15  C   UNL     1      47.550  17.334  16.907  0.00  0.00    +0.058 C 
ATOM     16  C   UNL     1      48.507  16.444  17.189  0.00  0.00    -0.057 C 
ATOM     17  C   UNL     1      48.896  16.058  18.575  0.00  0.00    +0.192 C 
ATOM     20  C   UNL     1      48.200  16.725  19.733  0.00  0.00    +0.072 C 
ATOM     21  C   UNL     1      50.190  20.869  20.009  0.00  0.00    +0.061 A 
ATOM     22  C   UNL     1      47.638  18.113  19.399  0.00  0.00    +0.218 C 
ATOM     23  C   UNL     1      51.005  20.748  18.905  0.00  0.00    +0.078 A 
ENDROOT
BRANCH   3   2
ATOM      1  C   UNL     1      51.628  18.287  16.322  0.00  0.00    +0.236 C 
ATOM      2  O   UNL     1      51.542  19.601  16.879  0.00  0.00    -0.305 OA
ENDBRANCH   3   2
BRANCH   7   8
ATOM      8  O   UNL     1      48.092  21.645  21.603  0.00  0.00    -0.378 OA
ATOM      9  C   UNL     1      46.802  22.157  21.268  0.00  0.00    +0.206 C 
ENDBRANCH   7   8
BRANCH  17  18
ATOM     18  O   UNL     1      48.675  14.651  18.688  0.00  0.00    -0.378 OA
ATOM     19  C   UNL     1      49.243  14.067  19.861  0.00  0.00    +0.200 C 
ENDBRANCH  17  18
BRANCH  23  24
ATOM     24  O   UNL     1      52.042  21.613  18.716  0.00  0.00    -0.487 OA
ATOM     25  H   UNL     1      52.831  21.204  18.334  0.00  0.00    +0.389 HD
ENDBRANCH  23  24
TORSDOF 4
ENDMDL
MODEL 9
REMARK VINA RESULT:      -4.6     22.073     24.336
REMARK  Name = ZINC95486135
REMARK  7 active torsions:
REMARK  status: ('A' for Active; 'I' for Inactive)
REMARK    1  A    between atoms: C1_1  and  O1_2
REMARK    2  A    between atoms: O1_2  and  C2_3
REMARK    3  A    between atoms: C7_8  and  O2_9
REMARK    4  A    between atoms: C8_10  and  O4_25
REMARK    5  A    between atoms: C12_16  and  O3_23
REMARK    6  A    between atoms: O3_23  and  C18_24
REMARK    7  A    between atoms: O4_25  and  C19_26
REMARK                            x       y       z     vdW  Elec       q    Type
REMARK                         _______ _______ _______ _____ _____    ______ ____
ROOT
ATOM      3  C   UNL     1      52.632  33.914   5.810  0.00  0.00    +0.106 A 
ATOM      4  C   UNL     1      53.673  33.861   4.897  0.00  0.00    -0.054 A 
ATOM      5  C   UNL     1      53.521  33.253   3.661  0.00  0.00    -0.039 A 
ATOM      6  C   UNL     1      52.285  32.719   3.345  0.00  0.00    -0.106 A 
ATOM      7  C   UNL     1      52.022  32.063   2.022  0.00  0.00    +0.207 C 
ATOM     10  C   UNL     1      53.012  32.439   0.961  0.00  0.00    +0.197 C 
ATOM     11  N   UNL     1      54.324  32.852   1.355  0.00  0.00    -0.536 NA
ATOM     12  C   UNL     1      54.730  34.012   0.517  0.00  0.00    +0.243 C 
ATOM     13  C   UNL     1      55.447  34.973   1.438  0.00  0.00    -0.003 C 
ATOM     14  C   UNL     1      55.438  34.492   2.662  0.00  0.00    -0.117 C 
ATOM     15  C   UNL     1      56.105  35.049   3.856  0.00  0.00    +0.058 C 
ATOM     16  C   UNL     1      56.550  34.132   4.722  0.00  0.00    -0.057 C 
ATOM     17  C   UNL     1      56.405  32.663   4.519  0.00  0.00    +0.192 C 
ATOM     20  C   UNL     1      55.691  32.171   3.288  0.00  0.00    +0.072 C 
ATOM     21  C   UNL     1      51.228  32.779   4.251  0.00  0.00    +0.061 A 
ATOM     22  C   UNL     1      54.686  33.177   2.712  0.00  0.00    +0.218 C 
ATOM     23  C   UNL     1      51.393  33.389   5.475  0.00  0.00    +0.078 A 
ENDROOT
BRANCH   3   2
ATOM      1  C   UNL     1      53.935  35.401   7.139  0.00  0.00    +0.236 C 
ATOM      2  O   UNL     1      52.831  34.500   7.026  0.00  0.00    -0.305 OA
ENDBRANCH   3   2
BRANCH   7   8
ATOM      8  O   UNL     1      50.722  32.455   1.571  0.00  0.00    -0.378 OA
ATOM      9  C   UNL     1      50.737  33.469   0.565  0.00  0.00    +0.206 C 
ENDBRANCH   7   8
BRANCH  17  18
ATOM     18  O   UNL     1      57.724  32.117   4.503  0.00  0.00    -0.378 OA
ATOM     19  C   UNL     1      57.991  31.276   3.379  0.00  0.00    +0.200 C 
ENDBRANCH  17  18
BRANCH  23  24
ATOM     24  O   UNL     1      50.340  33.505   6.334  0.00  0.00    -0.487 OA
ATOM     25  H   UNL     1      50.400  34.265   6.929  0.00  0.00    +0.389 HD
ENDBRANCH  23  24
TORSDOF 4
ENDMDL
