MODEL 1
REMARK VINA RESULT:      -5.3      0.000      0.000
REMARK  Name = ZINC95486116
REMARK  19 active torsions:
REMARK  status: ('A' for Active; 'I' for Inactive)
REMARK    1  A    between atoms: C1_1  and  C2_2
REMARK    2  A    between atoms: C3_3  and  C4_4
REMARK    3  A    between atoms: C3_3  and  C5_5
REMARK    4  A    between atoms: C5_5  and  C6_7
REMARK    5  A    between atoms: C6_7  and  C7_8
REMARK    6  A    between atoms: C8_10  and  O11_55
REMARK    7  A    between atoms: C13_19  and  O6_36
REMARK    8  A    between atoms: C14_21  and  C23_35
REMARK    9  A    between atoms: C18_28  and  C19_30
REMARK   10  A    between atoms: O6_36  and  C24_37
REMARK   11  A    between atoms: C24_37  and  C25_39
REMARK   12  A    between atoms: C26_40  and  C34_54
REMARK   13  A    between atoms: C27_42  and  C31_47
REMARK   14  A    between atoms: C28_44  and  C29_45
REMARK   15  A    between atoms: C28_44  and  C30_46
REMARK   16  A    between atoms: C31_47  and  C32_49
REMARK   17  A    between atoms: C31_47  and  O10_53
REMARK   18  A    between atoms: C32_49  and  O9_51
REMARK   19  A    between atoms: O9_51  and  C33_52
REMARK                            x       y       z     vdW  Elec       q    Type
REMARK                         _______ _______ _______ _____ _____    ______ ____
ROOT
ATOM      6  C   UNL     1      49.407  13.535  16.762  0.00  0.00    +0.008 C 
ATOM      7  C   UNL     1      48.717  14.856  16.697  0.00  0.00    +0.192 C 
ATOM     10  C   UNL     1      49.323  16.055  17.362  0.00  0.00    +0.127 C 
ATOM     11  C   UNL     1      49.116  16.315  18.852  0.00  0.00    +0.058 C 
ATOM     12  C   UNL     1      48.113  15.382  19.523  0.00  0.00    +0.085 C 
ATOM     13  C   UNL     1      48.681  14.027  19.911  0.00  0.00    -0.010 C 
ATOM     14  C   UNL     1      47.637  12.931  19.687  0.00  0.00    +0.032 C 
ATOM     15  C   UNL     1      50.018  13.665  19.344  0.00  0.00    +0.033 C 
ATOM     23  C   UNL     1      47.639  16.077  20.817  0.00  0.00    +0.016 C 
ATOM     24  C   UNL     1      46.876  17.352  20.501  0.00  0.00    +0.198 C 
ATOM     29  C   UNL     1      47.600  18.221  19.475  0.00  0.00    -0.072 C 
ATOM     30  C   UNL     1      46.876  18.117  18.132  0.00  0.00    +0.073 C 
ATOM     31  C   UNL     1      47.562  19.681  19.946  0.00  0.00    +0.276 C 
ATOM     37  O   UNL     1      48.331  20.503  19.065  0.00  0.00    -0.363 OA
ATOM     38  C   UNL     1      49.600  20.111  18.832  0.00  0.00    +0.491 C 
ATOM     39  O   UNL     1      50.533  20.864  18.978  0.00  0.00    -0.441 OA
ATOM     40  C   UNL     1      49.813  18.681  18.378  0.00  0.00    +0.063 C 
ATOM     41  C   UNL     1      49.052  17.767  19.339  0.00  0.00    +0.038 C 
ATOM     42  O   UNL     1      50.352  15.861  18.335  0.00  0.00    -0.307 OA
ATOM     43  C   UNL     1      50.234  13.157  17.957  0.00  0.00    -0.013 C 
ATOM     44  C   UNL     1      51.714  13.454  17.593  0.00  0.00    +0.020 C 
ATOM     45  C   UNL     1      50.187  11.604  18.045  0.00  0.00    +0.015 C 
ENDROOT
BRANCH  31  32
ATOM     32  C   UNL     1      46.139  20.173  19.947  0.00  0.00    -0.188 A 
ATOM     33  C   UNL     1      45.376  20.551  18.818  0.00  0.00    -0.047 A 
ATOM     34  C   UNL     1      44.166  20.923  19.272  0.00  0.00    +0.167 A 
ATOM     35  O   UNL     1      44.154  20.792  20.608  0.00  0.00    -0.172 OA
ATOM     36  C   UNL     1      45.346  20.332  21.023  0.00  0.00    +0.212 A 
ENDBRANCH  31  32
BRANCH   7   8
ATOM      8  O   UNL     1      47.326  14.723  16.974  0.00  0.00    -0.551 OA
ATOM      9  H   UNL     1      46.825  14.282  16.274  0.00  0.00    +0.368 HD
ENDBRANCH   7   8
BRANCH   6   5
ATOM      5  C   UNL     1      48.396  12.412  16.454  0.00  0.00    +0.044 C 
BRANCH   5   4
ATOM      4  C   UNL     1      48.417  12.110  14.978  0.00  0.00    +0.377 C 
ATOM     46  O   UNL     1      47.387  12.135  14.338  0.00  0.00    -0.458 OA
BRANCH   4   3
ATOM      1  C   UNL     1      51.576  10.277  13.869  0.00  0.00    +0.088 C 
ATOM      2  C   UNL     1      50.274  10.612  14.550  0.00  0.00    +0.066 C 
ATOM      3  C   UNL     1      49.682  11.785  14.317  0.00  0.00    -0.227 C 
ATOM     47  C   UNL     1      50.314  12.775  13.374  0.00  0.00    +0.094 C 
ENDBRANCH   4   3
ENDBRANCH   5   4
ENDBRANCH   6   5
BRANCH  15  16
ATOM     16  C   UNL     1      50.582  12.558  20.282  0.00  0.00    +0.235 C 
BRANCH  16  17
ATOM     17  O   UNL     1      52.006  12.513  20.162  0.00  0.00    -0.522 OA
ATOM     18  H   UNL     1      52.352  11.645  19.913  0.00  0.00    +0.385 HD
ENDBRANCH  16  17
BRANCH  16  19
ATOM     19  C   UNL     1      50.208  12.869  21.709  0.00  0.00    +0.434 C 
ATOM     22  O   UNL     1      50.551  13.912  22.210  0.00  0.00    -0.501 OA
BRANCH  19  20
ATOM     20  O   UNL     1      49.492  11.985  22.422  0.00  0.00    -0.345 OA
ATOM     21  C   UNL     1      49.478  10.635  21.956  0.00  0.00    +0.255 C 
ENDBRANCH  19  20
ENDBRANCH  16  19
ENDBRANCH  15  16
BRANCH  24  25
ATOM     25  O   UNL     1      45.593  17.001  19.982  0.00  0.00    -0.329 OA
BRANCH  25  26
ATOM     26  C   UNL     1      44.780  16.302  20.791  0.00  0.00    +0.458 C 
ATOM     27  C   UNL     1      43.960  17.015  21.835  0.00  0.00    +0.149 C 
ATOM     28  O   UNL     1      44.707  15.101  20.683  0.00  0.00    -0.510 OA
ENDBRANCH  25  26
ENDBRANCH  24  25
TORSDOF 11
ENDMDL
MODEL 2
REMARK VINA RESULT:      -5.0      2.959      7.190
REMARK  Name = ZINC95486116
REMARK  19 active torsions:
REMARK  status: ('A' for Active; 'I' for Inactive)
REMARK    1  A    between atoms: C1_1  and  C2_2
REMARK    2  A    between atoms: C3_3  and  C4_4
REMARK    3  A    between atoms: C3_3  and  C5_5
REMARK    4  A    between atoms: C5_5  and  C6_7
REMARK    5  A    between atoms: C6_7  and  C7_8
REMARK    6  A    between atoms: C8_10  and  O11_55
REMARK    7  A    between atoms: C13_19  and  O6_36
REMARK    8  A    between atoms: C14_21  and  C23_35
REMARK    9  A    between atoms: C18_28  and  C19_30
REMARK   10  A    between atoms: O6_36  and  C24_37
REMARK   11  A    between atoms: C24_37  and  C25_39
REMARK   12  A    between atoms: C26_40  and  C34_54
REMARK   13  A    between atoms: C27_42  and  C31_47
REMARK   14  A    between atoms: C28_44  and  C29_45
REMARK   15  A    between atoms: C28_44  and  C30_46
REMARK   16  A    between atoms: C31_47  and  C32_49
REMARK   17  A    between atoms: C31_47  and  O10_53
REMARK   18  A    between atoms: C32_49  and  O9_51
REMARK   19  A    between atoms: O9_51  and  C33_52
REMARK                            x       y       z     vdW  Elec       q    Type
REMARK                         _______ _______ _______ _____ _____    ______ ____
ROOT
ATOM      6  C   UNL     1      47.040  14.147  18.439  0.00  0.00    +0.008 C 
ATOM      7  C   UNL     1      48.091  14.781  19.288  0.00  0.00    +0.192 C 
ATOM     10  C   UNL     1      49.081  15.727  18.680  0.00  0.00    +0.127 C 
ATOM     11  C   UNL     1      50.333  15.209  17.976  0.00  0.00    +0.058 C 
ATOM     12  C   UNL     1      50.564  13.708  18.122  0.00  0.00    +0.085 C 
ATOM     13  C   UNL     1      49.756  12.854  17.159  0.00  0.00    -0.010 C 
ATOM     14  C   UNL     1      49.291  11.571  17.851  0.00  0.00    +0.032 C 
ATOM     15  C   UNL     1      48.649  13.533  16.416  0.00  0.00    +0.033 C 
ATOM     23  C   UNL     1      52.058  13.447  17.835  0.00  0.00    +0.016 C 
ATOM     24  C   UNL     1      52.936  14.109  18.884  0.00  0.00    +0.198 C 
ATOM     29  C   UNL     1      52.526  15.554  19.154  0.00  0.00    -0.072 C 
ATOM     30  C   UNL     1      51.817  15.629  20.506  0.00  0.00    +0.073 C 
ATOM     31  C   UNL     1      53.788  16.426  19.209  0.00  0.00    +0.276 C 
ATOM     37  O   UNL     1      53.430  17.804  19.346  0.00  0.00    -0.363 OA
ATOM     38  C   UNL     1      52.555  18.290  18.442  0.00  0.00    +0.491 C 
ATOM     39  O   UNL     1      52.790  19.290  17.809  0.00  0.00    -0.441 OA
ATOM     40  C   UNL     1      51.260  17.527  18.251  0.00  0.00    +0.063 C 
ATOM     41  C   UNL     1      51.610  16.054  18.038  0.00  0.00    +0.038 C 
ATOM     42  O   UNL     1      49.238  15.745  17.258  0.00  0.00    -0.307 OA
ATOM     43  C   UNL     1      47.305  13.832  16.995  0.00  0.00    -0.013 C 
ATOM     44  C   UNL     1      46.703  14.994  16.161  0.00  0.00    +0.020 C 
ATOM     45  C   UNL     1      46.395  12.621  16.640  0.00  0.00    +0.015 C 
ENDROOT
BRANCH  31  32
ATOM     32  C   UNL     1      54.627  16.024  20.394  0.00  0.00    -0.188 A 
ATOM     33  C   UNL     1      54.384  16.350  21.748  0.00  0.00    -0.047 A 
ATOM     34  C   UNL     1      55.373  15.792  22.468  0.00  0.00    +0.167 A 
ATOM     35  O   UNL     1      56.199  15.148  21.626  0.00  0.00    -0.172 OA
ATOM     36  C   UNL     1      55.747  15.281  20.368  0.00  0.00    +0.212 A 
ENDBRANCH  31  32
BRANCH   7   8
ATOM      8  O   UNL     1      48.707  13.823  20.144  0.00  0.00    -0.551 OA
ATOM      9  H   UNL     1      48.804  14.118  21.060  0.00  0.00    +0.368 HD
ENDBRANCH   7   8
BRANCH   6   5
ATOM      5  C   UNL     1      46.490  12.896  19.152  0.00  0.00    +0.044 C 
BRANCH   5   4
ATOM      4  C   UNL     1      45.176  13.231  19.809  0.00  0.00    +0.377 C 
ATOM     46  O   UNL     1      44.132  12.938  19.264  0.00  0.00    -0.458 OA
BRANCH   4   3
ATOM      1  C   UNL     1      44.877  15.915  22.505  0.00  0.00    +0.088 C 
ATOM      2  C   UNL     1      44.895  15.215  21.170  0.00  0.00    +0.066 C 
ATOM      3  C   UNL     1      45.159  13.909  21.105  0.00  0.00    -0.227 C 
ATOM     47  C   UNL     1      45.439  13.132  22.366  0.00  0.00    +0.094 C 
ENDBRANCH   4   3
ENDBRANCH   5   4
ENDBRANCH   6   5
BRANCH  15  16
ATOM     16  C   UNL     1      48.373  12.639  15.171  0.00  0.00    +0.235 C 
BRANCH  16  17
ATOM     17  O   UNL     1      47.646  13.392  14.197  0.00  0.00    -0.522 OA
ATOM     18  H   UNL     1      48.147  14.126  13.814  0.00  0.00    +0.385 HD
ENDBRANCH  16  17
BRANCH  16  19
ATOM     19  C   UNL     1      49.681  12.183  14.579  0.00  0.00    +0.434 C 
ATOM     22  O   UNL     1      49.916  11.004  14.467  0.00  0.00    -0.501 OA
BRANCH  19  20
ATOM     20  O   UNL     1      50.587  13.088  14.175  0.00  0.00    -0.345 OA
ATOM     21  C   UNL     1      50.957  13.064  12.796  0.00  0.00    +0.255 C 
ENDBRANCH  19  20
ENDBRANCH  16  19
ENDBRANCH  15  16
BRANCH  24  25
ATOM     25  O   UNL     1      52.834  13.367  20.100  0.00  0.00    -0.329 OA
BRANCH  25  26
ATOM     26  C   UNL     1      53.413  12.156  20.125  0.00  0.00    +0.458 C 
ATOM     27  C   UNL     1      52.615  10.946  20.536  0.00  0.00    +0.149 C 
ATOM     28  O   UNL     1      54.575  12.035  19.817  0.00  0.00    -0.510 OA
ENDBRANCH  25  26
ENDBRANCH  24  25
TORSDOF 11
ENDMDL
MODEL 3
REMARK VINA RESULT:      -4.8      2.869      7.120
REMARK  Name = ZINC95486116
REMARK  19 active torsions:
REMARK  status: ('A' for Active; 'I' for Inactive)
REMARK    1  A    between atoms: C1_1  and  C2_2
REMARK    2  A    between atoms: C3_3  and  C4_4
REMARK    3  A    between atoms: C3_3  and  C5_5
REMARK    4  A    between atoms: C5_5  and  C6_7
REMARK    5  A    between atoms: C6_7  and  C7_8
REMARK    6  A    between atoms: C8_10  and  O11_55
REMARK    7  A    between atoms: C13_19  and  O6_36
REMARK    8  A    between atoms: C14_21  and  C23_35
REMARK    9  A    between atoms: C18_28  and  C19_30
REMARK   10  A    between atoms: O6_36  and  C24_37
REMARK   11  A    between atoms: C24_37  and  C25_39
REMARK   12  A    between atoms: C26_40  and  C34_54
REMARK   13  A    between atoms: C27_42  and  C31_47
REMARK   14  A    between atoms: C28_44  and  C29_45
REMARK   15  A    between atoms: C28_44  and  C30_46
REMARK   16  A    between atoms: C31_47  and  C32_49
REMARK   17  A    between atoms: C31_47  and  O10_53
REMARK   18  A    between atoms: C32_49  and  O9_51
REMARK   19  A    between atoms: O9_51  and  C33_52
REMARK                            x       y       z     vdW  Elec       q    Type
REMARK                         _______ _______ _______ _____ _____    ______ ____
ROOT
ATOM      6  C   UNL     1      50.693  17.798  18.391  0.00  0.00    +0.008 C 
ATOM      7  C   UNL     1      49.412  17.170  17.951  0.00  0.00    +0.192 C 
ATOM     10  C   UNL     1      48.634  16.307  18.898  0.00  0.00    +0.127 C 
ATOM     11  C   UNL     1      48.987  14.834  19.090  0.00  0.00    +0.058 C 
ATOM     12  C   UNL     1      50.037  14.304  18.119  0.00  0.00    +0.085 C 
ATOM     13  C   UNL     1      51.470  14.625  18.511  0.00  0.00    -0.010 C 
ATOM     14  C   UNL     1      52.303  14.936  17.265  0.00  0.00    +0.032 C 
ATOM     15  C   UNL     1      51.665  15.639  19.594  0.00  0.00    +0.033 C 
ATOM     23  C   UNL     1      49.895  12.767  18.088  0.00  0.00    +0.016 C 
ATOM     24  C   UNL     1      48.550  12.358  17.513  0.00  0.00    +0.198 C 
ATOM     29  C   UNL     1      47.394  13.147  18.123  0.00  0.00    -0.072 C 
ATOM     30  C   UNL     1      46.892  14.168  17.103  0.00  0.00    +0.073 C 
ATOM     31  C   UNL     1      46.252  12.177  18.456  0.00  0.00    +0.276 C 
ATOM     37  O   UNL     1      45.201  12.868  19.135  0.00  0.00    -0.363 OA
ATOM     38  C   UNL     1      45.554  13.578  20.226  0.00  0.00    +0.491 C 
ATOM     39  O   UNL     1      44.995  13.432  21.285  0.00  0.00    -0.441 OA
ATOM     40  C   UNL     1      46.689  14.571  20.069  0.00  0.00    +0.063 C 
ATOM     41  C   UNL     1      47.857  13.846  19.400  0.00  0.00    +0.038 C 
ATOM     42  O   UNL     1      49.280  15.809  20.072  0.00  0.00    -0.307 OA
ATOM     43  C   UNL     1      51.581  17.116  19.391  0.00  0.00    -0.013 C 
ATOM     44  C   UNL     1      51.269  17.745  20.775  0.00  0.00    +0.020 C 
ATOM     45  C   UNL     1      53.029  17.601  19.089  0.00  0.00    +0.015 C 
ENDROOT
BRANCH  31  32
ATOM     32  C   UNL     1      45.702  11.591  17.183  0.00  0.00    -0.188 A 
ATOM     33  C   UNL     1      46.277  10.550  16.417  0.00  0.00    -0.047 A 
ATOM     34  C   UNL     1      45.461  10.341  15.368  0.00  0.00    +0.167 A 
ATOM     35  O   UNL     1      44.428  11.195  15.457  0.00  0.00    -0.172 OA
ATOM     36  C   UNL     1      44.566  11.951  16.559  0.00  0.00    +0.212 A 
ENDBRANCH  31  32
BRANCH   7   8
ATOM      8  O   UNL     1      49.546  16.581  16.660  0.00  0.00    -0.551 OA
ATOM      9  H   UNL     1      50.297  15.976  16.579  0.00  0.00    +0.368 HD
ENDBRANCH   7   8
BRANCH   6   5
ATOM      5  C   UNL     1      51.518  18.202  17.153  0.00  0.00    +0.044 C 
BRANCH   5   4
ATOM      4  C   UNL     1      51.437  19.695  16.962  0.00  0.00    +0.377 C 
ATOM     46  O   UNL     1      51.467  20.167  15.845  0.00  0.00    -0.458 OA
BRANCH   4   3
ATOM      1  C   UNL     1      52.305  21.856  19.986  0.00  0.00    +0.088 C 
ATOM      2  C   UNL     1      52.421  20.949  18.787  0.00  0.00    +0.066 C 
ATOM      3  C   UNL     1      51.324  20.575  18.125  0.00  0.00    -0.227 C 
ATOM     47  C   UNL     1      49.970  21.058  18.575  0.00  0.00    +0.094 C 
ENDBRANCH   4   3
ENDBRANCH   5   4
ENDBRANCH   6   5
BRANCH  15  16
ATOM     16  C   UNL     1      53.096  15.380  20.153  0.00  0.00    +0.235 C 
BRANCH  16  17
ATOM     17  O   UNL     1      53.188  15.899  21.482  0.00  0.00    -0.522 OA
ATOM     18  H   UNL     1      53.911  16.529  21.609  0.00  0.00    +0.385 HD
ENDBRANCH  16  17
BRANCH  16  19
ATOM     19  C   UNL     1      53.368  13.898  20.173  0.00  0.00    +0.434 C 
ATOM     22  O   UNL     1      52.648  13.160  20.802  0.00  0.00    -0.501 OA
BRANCH  19  20
ATOM     20  O   UNL     1      54.410  13.398  19.490  0.00  0.00    -0.345 OA
ATOM     21  C   UNL     1      55.666  14.058  19.648  0.00  0.00    +0.255 C 
ENDBRANCH  19  20
ENDBRANCH  16  19
ENDBRANCH  15  16
BRANCH  24  25
ATOM     25  O   UNL     1      48.568  12.584  16.103  0.00  0.00    -0.329 OA
BRANCH  25  26
ATOM     26  C   UNL     1      49.515  11.948  15.396  0.00  0.00    +0.458 C 
ATOM     27  C   UNL     1      50.492  12.736  14.563  0.00  0.00    +0.149 C 
ATOM     28  O   UNL     1      49.584  10.742  15.427  0.00  0.00    -0.510 OA
ENDBRANCH  25  26
ENDBRANCH  24  25
TORSDOF 11
ENDMDL
MODEL 4
REMARK VINA RESULT:      -4.3      1.511      2.052
REMARK  Name = ZINC95486116
REMARK  19 active torsions:
REMARK  status: ('A' for Active; 'I' for Inactive)
REMARK    1  A    between atoms: C1_1  and  C2_2
REMARK    2  A    between atoms: C3_3  and  C4_4
REMARK    3  A    between atoms: C3_3  and  C5_5
REMARK    4  A    between atoms: C5_5  and  C6_7
REMARK    5  A    between atoms: C6_7  and  C7_8
REMARK    6  A    between atoms: C8_10  and  O11_55
REMARK    7  A    between atoms: C13_19  and  O6_36
REMARK    8  A    between atoms: C14_21  and  C23_35
REMARK    9  A    between atoms: C18_28  and  C19_30
REMARK   10  A    between atoms: O6_36  and  C24_37
REMARK   11  A    between atoms: C24_37  and  C25_39
REMARK   12  A    between atoms: C26_40  and  C34_54
REMARK   13  A    between atoms: C27_42  and  C31_47
REMARK   14  A    between atoms: C28_44  and  C29_45
REMARK   15  A    between atoms: C28_44  and  C30_46
REMARK   16  A    between atoms: C31_47  and  C32_49
REMARK   17  A    between atoms: C31_47  and  O10_53
REMARK   18  A    between atoms: C32_49  and  O9_51
REMARK   19  A    between atoms: O9_51  and  C33_52
REMARK                            x       y       z     vdW  Elec       q    Type
REMARK                         _______ _______ _______ _____ _____    ______ ____
ROOT
ATOM      6  C   UNL     1      49.852  14.202  16.519  0.00  0.00    +0.008 C 
ATOM      7  C   UNL     1      48.713  15.146  16.716  0.00  0.00    +0.192 C 
ATOM     10  C   UNL     1      48.889  16.371  17.562  0.00  0.00    +0.127 C 
ATOM     11  C   UNL     1      48.754  16.303  19.081  0.00  0.00    +0.058 C 
ATOM     12  C   UNL     1      48.250  14.964  19.612  0.00  0.00    +0.085 C 
ATOM     13  C   UNL     1      49.323  13.895  19.730  0.00  0.00    -0.010 C 
ATOM     14  C   UNL     1      48.751  12.526  19.353  0.00  0.00    +0.032 C 
ATOM     15  C   UNL     1      50.631  14.170  19.058  0.00  0.00    +0.033 C 
ATOM     23  C   UNL     1      47.686  15.218  21.026  0.00  0.00    +0.016 C 
ATOM     24  C   UNL     1      46.472  16.129  20.971  0.00  0.00    +0.198 C 
ATOM     29  C   UNL     1      46.706  17.354  20.090  0.00  0.00    -0.072 C 
ATOM     30  C   UNL     1      45.940  17.181  18.779  0.00  0.00    +0.073 C 
ATOM     31  C   UNL     1      46.170  18.596  20.815  0.00  0.00    +0.276 C 
ATOM     37  O   UNL     1      46.479  19.775  20.067  0.00  0.00    -0.363 OA
ATOM     38  C   UNL     1      47.771  19.946  19.721  0.00  0.00    +0.491 C 
ATOM     39  O   UNL     1      48.361  20.970  19.965  0.00  0.00    -0.441 OA
ATOM     40  C   UNL     1      48.457  18.796  19.012  0.00  0.00    +0.063 C 
ATOM     41  C   UNL     1      48.200  17.525  19.822  0.00  0.00    +0.038 C 
ATOM     42  O   UNL     1      50.010  16.448  18.446  0.00  0.00    -0.307 OA
ATOM     43  C   UNL     1      50.879  14.000  17.596  0.00  0.00    -0.013 C 
ATOM     44  C   UNL     1      52.092  14.899  17.237  0.00  0.00    +0.020 C 
ATOM     45  C   UNL     1      51.429  12.557  17.407  0.00  0.00    +0.015 C 
ENDROOT
BRANCH  31  32
ATOM     32  C   UNL     1      44.674  18.491  20.957  0.00  0.00    -0.188 A 
ATOM     33  C   UNL     1      43.706  18.958  20.040  0.00  0.00    -0.047 A 
ATOM     34  C   UNL     1      42.501  18.659  20.558  0.00  0.00    +0.167 A 
ATOM     35  O   UNL     1      42.687  18.039  21.734  0.00  0.00    -0.172 OA
ATOM     36  C   UNL     1      44.004  17.929  21.979  0.00  0.00    +0.212 A 
ENDBRANCH  31  32
BRANCH   7   8
ATOM      8  O   UNL     1      47.510  14.444  17.017  0.00  0.00    -0.551 OA
ATOM      9  H   UNL     1      47.478  13.547  16.656  0.00  0.00    +0.368 HD
ENDBRANCH   7   8
BRANCH   6   5
ATOM      5  C   UNL     1      49.312  12.836  16.053  0.00  0.00    +0.044 C 
BRANCH   5   4
ATOM      4  C   UNL     1      48.952  12.911  14.591  0.00  0.00    +0.377 C 
ATOM     46  O   UNL     1      47.788  12.933  14.253  0.00  0.00    -0.458 OA
BRANCH   4   3
ATOM      1  C   UNL     1      50.783  13.152  11.251  0.00  0.00    +0.088 C 
ATOM      2  C   UNL     1      49.694  13.105  12.293  0.00  0.00    +0.066 C 
ATOM      3  C   UNL     1      50.010  12.955  13.581  0.00  0.00    -0.227 C 
ATOM     47  C   UNL     1      51.453  12.833  13.995  0.00  0.00    +0.094 C 
ENDBRANCH   4   3
ENDBRANCH   5   4
ENDBRANCH   6   5
BRANCH  15  16
ATOM     16  C   UNL     1      51.664  13.241  19.762  0.00  0.00    +0.235 C 
BRANCH  16  17
ATOM     17  O   UNL     1      52.982  13.566  19.311  0.00  0.00    -0.522 OA
ATOM     18  H   UNL     1      53.341  12.941  18.665  0.00  0.00    +0.385 HD
ENDBRANCH  16  17
BRANCH  16  19
ATOM     19  C   UNL     1      51.583  13.437  21.254  0.00  0.00    +0.434 C 
ATOM     22  O   UNL     1      51.319  12.504  21.973  0.00  0.00    -0.501 OA
BRANCH  19  20
ATOM     20  O   UNL     1      51.805  14.651  21.784  0.00  0.00    -0.345 OA
ATOM     21  C   UNL     1      53.025  14.830  22.505  0.00  0.00    +0.255 C 
ENDBRANCH  19  20
ENDBRANCH  16  19
ENDBRANCH  15  16
BRANCH  24  25
ATOM     25  O   UNL     1      45.368  15.389  20.446  0.00  0.00    -0.329 OA
BRANCH  25  26
ATOM     26  C   UNL     1      45.084  14.219  21.038  0.00  0.00    +0.458 C 
ATOM     27  C   UNL     1      44.740  14.180  22.505  0.00  0.00    +0.149 C 
ATOM     28  O   UNL     1      45.103  13.196  20.396  0.00  0.00    -0.510 OA
ENDBRANCH  25  26
ENDBRANCH  24  25
TORSDOF 11
ENDMDL
MODEL 5
REMARK VINA RESULT:      -4.0      2.578      4.363
REMARK  Name = ZINC95486116
REMARK  19 active torsions:
REMARK  status: ('A' for Active; 'I' for Inactive)
REMARK    1  A    between atoms: C1_1  and  C2_2
REMARK    2  A    between atoms: C3_3  and  C4_4
REMARK    3  A    between atoms: C3_3  and  C5_5
REMARK    4  A    between atoms: C5_5  and  C6_7
REMARK    5  A    between atoms: C6_7  and  C7_8
REMARK    6  A    between atoms: C8_10  and  O11_55
REMARK    7  A    between atoms: C13_19  and  O6_36
REMARK    8  A    between atoms: C14_21  and  C23_35
REMARK    9  A    between atoms: C18_28  and  C19_30
REMARK   10  A    between atoms: O6_36  and  C24_37
REMARK   11  A    between atoms: C24_37  and  C25_39
REMARK   12  A    between atoms: C26_40  and  C34_54
REMARK   13  A    between atoms: C27_42  and  C31_47
REMARK   14  A    between atoms: C28_44  and  C29_45
REMARK   15  A    between atoms: C28_44  and  C30_46
REMARK   16  A    between atoms: C31_47  and  C32_49
REMARK   17  A    between atoms: C31_47  and  O10_53
REMARK   18  A    between atoms: C32_49  and  O9_51
REMARK   19  A    between atoms: O9_51  and  C33_52
REMARK                            x       y       z     vdW  Elec       q    Type
REMARK                         _______ _______ _______ _____ _____    ______ ____
ROOT
ATOM      6  C   UNL     1      50.875  12.245  15.577  0.00  0.00    +0.008 C 
ATOM      7  C   UNL     1      51.447  13.571  15.956  0.00  0.00    +0.192 C 
ATOM     10  C   UNL     1      51.786  13.863  17.386  0.00  0.00    +0.127 C 
ATOM     11  C   UNL     1      50.716  14.338  18.366  0.00  0.00    +0.058 C 
ATOM     12  C   UNL     1      49.370  14.661  17.725  0.00  0.00    +0.085 C 
ATOM     13  C   UNL     1      48.494  13.447  17.467  0.00  0.00    -0.010 C 
ATOM     14  C   UNL     1      47.736  13.612  16.147  0.00  0.00    +0.032 C 
ATOM     15  C   UNL     1      49.143  12.104  17.586  0.00  0.00    +0.033 C 
ATOM     23  C   UNL     1      48.611  15.586  18.699  0.00  0.00    +0.016 C 
ATOM     24  C   UNL     1      49.329  16.916  18.856  0.00  0.00    +0.198 C 
ATOM     29  C   UNL     1      50.827  16.742  19.093  0.00  0.00    -0.072 C 
ATOM     30  C   UNL     1      51.582  17.119  17.819  0.00  0.00    +0.073 C 
ATOM     31  C   UNL     1      51.263  17.683  20.224  0.00  0.00    +0.276 C 
ATOM     37  O   UNL     1      52.637  17.461  20.549  0.00  0.00    -0.363 OA
ATOM     38  C   UNL     1      52.991  16.189  20.826  0.00  0.00    +0.491 C 
ATOM     39  O   UNL     1      53.584  15.903  21.837  0.00  0.00    -0.441 OA
ATOM     40  C   UNL     1      52.612  15.128  19.813  0.00  0.00    +0.063 C 
ATOM     41  C   UNL     1      51.127  15.297  19.489  0.00  0.00    +0.038 C 
ATOM     42  O   UNL     1      51.244  13.027  18.412  0.00  0.00    -0.307 OA
ATOM     43  C   UNL     1      49.998  11.485  16.530  0.00  0.00    -0.013 C 
ATOM     44  C   UNL     1      50.900  10.439  17.237  0.00  0.00    +0.020 C 
ATOM     45  C   UNL     1      49.053  10.616  15.652  0.00  0.00    +0.015 C 
ENDROOT
BRANCH  31  32
ATOM     32  C   UNL     1      51.096  19.114  19.782  0.00  0.00    -0.188 A 
ATOM     33  C   UNL     1      51.972  19.845  18.947  0.00  0.00    -0.047 A 
ATOM     34  C   UNL     1      51.443  21.075  18.810  0.00  0.00    +0.167 A 
ATOM     35  O   UNL     1      50.300  21.126  19.513  0.00  0.00    -0.172 OA
ATOM     36  C   UNL     1      50.081  19.938  20.100  0.00  0.00    +0.212 A 
ENDBRANCH  31  32
BRANCH   7   8
ATOM      8  O   UNL     1      50.730  14.635  15.336  0.00  0.00    -0.551 OA
ATOM      9  H   UNL     1      51.179  15.491  15.381  0.00  0.00    +0.368 HD
ENDBRANCH   7   8
BRANCH   6   5
ATOM      5  C   UNL     1      50.178  12.360  14.207  0.00  0.00    +0.044 C 
BRANCH   5   4
ATOM      4  C   UNL     1      51.027  11.695  13.155  0.00  0.00    +0.377 C 
ATOM     46  O   UNL     1      51.777  10.792  13.461  0.00  0.00    -0.458 OA
BRANCH   4   3
ATOM      1  C   UNL     1      51.417  11.861   9.362  0.00  0.00    +0.088 C 
ATOM      2  C   UNL     1      51.500  11.404  10.796  0.00  0.00    +0.066 C 
ATOM      3  C   UNL     1      50.947  12.139  11.763  0.00  0.00    -0.227 C 
ATOM     47  C   UNL     1      50.240  13.425  11.423  0.00  0.00    +0.094 C 
ENDBRANCH   4   3
ENDBRANCH   5   4
ENDBRANCH   6   5
BRANCH  15  16
ATOM     16  C   UNL     1      47.977  11.097  17.816  0.00  0.00    +0.235 C 
BRANCH  16  17
ATOM     17  O   UNL     1      48.274  10.277  18.949  0.00  0.00    -0.522 OA
ATOM     18  H   UNL     1      47.912  10.612  19.782  0.00  0.00    +0.385 HD
ENDBRANCH  16  17
BRANCH  16  19
ATOM     19  C   UNL     1      46.699  11.855  18.066  0.00  0.00    +0.434 C 
ATOM     22  O   UNL     1      45.774  11.750  17.298  0.00  0.00    -0.501 OA
BRANCH  19  20
ATOM     20  O   UNL     1      46.590  12.647  19.145  0.00  0.00    -0.345 OA
ATOM     21  C   UNL     1      45.379  13.392  19.283  0.00  0.00    +0.255 C 
ENDBRANCH  19  20
ENDBRANCH  16  19
ENDBRANCH  15  16
BRANCH  24  25
ATOM     25  O   UNL     1      49.138  17.682  17.665  0.00  0.00    -0.329 OA
BRANCH  25  26
ATOM     26  C   UNL     1      47.873  17.987  17.334  0.00  0.00    +0.458 C 
ATOM     27  C   UNL     1      47.050  18.872  18.235  0.00  0.00    +0.149 C 
ATOM     28  O   UNL     1      47.393  17.552  16.315  0.00  0.00    -0.510 OA
ENDBRANCH  25  26
ENDBRANCH  24  25
TORSDOF 11
ENDMDL
MODEL 6
REMARK VINA RESULT:      -3.7      1.692      2.110
REMARK  Name = ZINC95486116
REMARK  19 active torsions:
REMARK  status: ('A' for Active; 'I' for Inactive)
REMARK    1  A    between atoms: C1_1  and  C2_2
REMARK    2  A    between atoms: C3_3  and  C4_4
REMARK    3  A    between atoms: C3_3  and  C5_5
REMARK    4  A    between atoms: C5_5  and  C6_7
REMARK    5  A    between atoms: C6_7  and  C7_8
REMARK    6  A    between atoms: C8_10  and  O11_55
REMARK    7  A    between atoms: C13_19  and  O6_36
REMARK    8  A    between atoms: C14_21  and  C23_35
REMARK    9  A    between atoms: C18_28  and  C19_30
REMARK   10  A    between atoms: O6_36  and  C24_37
REMARK   11  A    between atoms: C24_37  and  C25_39
REMARK   12  A    between atoms: C26_40  and  C34_54
REMARK   13  A    between atoms: C27_42  and  C31_47
REMARK   14  A    between atoms: C28_44  and  C29_45
REMARK   15  A    between atoms: C28_44  and  C30_46
REMARK   16  A    between atoms: C31_47  and  C32_49
REMARK   17  A    between atoms: C31_47  and  O10_53
REMARK   18  A    between atoms: C32_49  and  O9_51
REMARK   19  A    between atoms: O9_51  and  C33_52
REMARK                            x       y       z     vdW  Elec       q    Type
REMARK                         _______ _______ _______ _____ _____    ______ ____
ROOT
ATOM      6  C   UNL     1      51.416  13.555  17.032  0.00  0.00    +0.008 C 
ATOM      7  C   UNL     1      50.895  14.953  17.001  0.00  0.00    +0.192 C 
ATOM     10  C   UNL     1      51.221  15.902  18.114  0.00  0.00    +0.127 C 
ATOM     11  C   UNL     1      50.408  15.905  19.407  0.00  0.00    +0.058 C 
ATOM     12  C   UNL     1      49.164  15.023  19.373  0.00  0.00    +0.085 C 
ATOM     13  C   UNL     1      49.434  13.551  19.632  0.00  0.00    -0.010 C 
ATOM     14  C   UNL     1      48.530  12.684  18.753  0.00  0.00    +0.032 C 
ATOM     15  C   UNL     1      50.863  13.107  19.591  0.00  0.00    +0.033 C 
ATOM     23  C   UNL     1      48.218  15.526  20.485  0.00  0.00    +0.016 C 
ATOM     24  C   UNL     1      47.738  16.937  20.192  0.00  0.00    +0.198 C 
ATOM     29  C   UNL     1      48.879  17.865  19.783  0.00  0.00    -0.072 C 
ATOM     30  C   UNL     1      48.799  18.124  18.279  0.00  0.00    +0.073 C 
ATOM     31  C   UNL     1      48.723  19.200  20.523  0.00  0.00    +0.276 C 
ATOM     37  O   UNL     1      49.841  20.049  20.251  0.00  0.00    -0.363 OA
ATOM     38  C   UNL     1      51.063  19.523  20.470  0.00  0.00    +0.491 C 
ATOM     39  O   UNL     1      51.881  20.088  21.155  0.00  0.00    -0.441 OA
ATOM     40  C   UNL     1      51.370  18.188  19.823  0.00  0.00    +0.063 C 
ATOM     41  C   UNL     1      50.221  17.233  20.149  0.00  0.00    +0.038 C 
ATOM     42  O   UNL     1      51.719  15.377  19.348  0.00  0.00    -0.307 OA
ATOM     43  C   UNL     1      51.627  12.841  18.336  0.00  0.00    -0.013 C 
ATOM     44  C   UNL     1      53.132  12.977  18.687  0.00  0.00    +0.020 C 
ATOM     45  C   UNL     1      51.461  11.323  18.033  0.00  0.00    +0.015 C 
ENDROOT
BRANCH  31  32
ATOM     32  C   UNL     1      47.467  19.890  20.060  0.00  0.00    -0.188 A 
ATOM     33  C   UNL     1      47.222  20.418  18.771  0.00  0.00    -0.047 A 
ATOM     34  C   UNL     1      45.982  20.940  18.793  0.00  0.00    +0.167 A 
ATOM     35  O   UNL     1      45.466  20.758  20.019  0.00  0.00    -0.172 OA
ATOM     36  C   UNL     1      46.360  20.116  20.790  0.00  0.00    +0.212 A 
ENDBRANCH  31  32
BRANCH   7   8
ATOM      8  O   UNL     1      49.515  14.979  16.648  0.00  0.00    -0.551 OA
ATOM      9  H   UNL     1      49.172  15.865  16.465  0.00  0.00    +0.368 HD
ENDBRANCH   7   8
BRANCH   6   5
ATOM      5  C   UNL     1      50.576  12.673  16.086  0.00  0.00    +0.044 C 
BRANCH   5   4
ATOM      4  C   UNL     1      51.430  12.223  14.929  0.00  0.00    +0.377 C 
ATOM     46  O   UNL     1      52.106  11.220  15.028  0.00  0.00    -0.458 OA
BRANCH   4   3
ATOM      1  C   UNL     1      50.627  13.469  11.413  0.00  0.00    +0.088 C 
ATOM      2  C   UNL     1      50.614  12.673  12.693  0.00  0.00    +0.066 C 
ATOM      3  C   UNL     1      51.443  12.996  13.687  0.00  0.00    -0.227 C 
ATOM     47  C   UNL     1      52.393  14.155  13.531  0.00  0.00    +0.094 C 
ENDBRANCH   4   3
ENDBRANCH   5   4
ENDBRANCH   6   5
BRANCH  15  16
ATOM     16  C   UNL     1      50.907  11.772  20.392  0.00  0.00    +0.235 C 
BRANCH  16  17
ATOM     17  O   UNL     1      52.036  11.780  21.269  0.00  0.00    -0.522 OA
ATOM     18  H   UNL     1      52.727  12.407  21.013  0.00  0.00    +0.385 HD
ENDBRANCH  16  17
BRANCH  16  19
ATOM     19  C   UNL     1      49.644  11.629  21.202  0.00  0.00    +0.434 C 
ATOM     22  O   UNL     1      48.909  10.689  21.015  0.00  0.00    -0.501 OA
BRANCH  19  20
ATOM     20  O   UNL     1      49.337  12.546  22.133  0.00  0.00    -0.345 OA
ATOM     21  C   UNL     1      47.960  12.669  22.493  0.00  0.00    +0.255 C 
ENDBRANCH  19  20
ENDBRANCH  16  19
ENDBRANCH  15  16
BRANCH  24  25
ATOM     25  O   UNL     1      46.785  16.884  19.129  0.00  0.00    -0.329 OA
BRANCH  25  26
ATOM     26  C   UNL     1      45.509  16.642  19.468  0.00  0.00    +0.458 C 
ATOM     27  C   UNL     1      45.094  15.261  19.907  0.00  0.00    +0.149 C 
ATOM     28  O   UNL     1      44.692  17.530  19.421  0.00  0.00    -0.510 OA
ENDBRANCH  25  26
ENDBRANCH  24  25
TORSDOF 11
ENDMDL
MODEL 7
REMARK VINA RESULT:      -3.5      1.591      1.883
REMARK  Name = ZINC95486116
REMARK  19 active torsions:
REMARK  status: ('A' for Active; 'I' for Inactive)
REMARK    1  A    between atoms: C1_1  and  C2_2
REMARK    2  A    between atoms: C3_3  and  C4_4
REMARK    3  A    between atoms: C3_3  and  C5_5
REMARK    4  A    between atoms: C5_5  and  C6_7
REMARK    5  A    between atoms: C6_7  and  C7_8
REMARK    6  A    between atoms: C8_10  and  O11_55
REMARK    7  A    between atoms: C13_19  and  O6_36
REMARK    8  A    between atoms: C14_21  and  C23_35
REMARK    9  A    between atoms: C18_28  and  C19_30
REMARK   10  A    between atoms: O6_36  and  C24_37
REMARK   11  A    between atoms: C24_37  and  C25_39
REMARK   12  A    between atoms: C26_40  and  C34_54
REMARK   13  A    between atoms: C27_42  and  C31_47
REMARK   14  A    between atoms: C28_44  and  C29_45
REMARK   15  A    between atoms: C28_44  and  C30_46
REMARK   16  A    between atoms: C31_47  and  C32_49
REMARK   17  A    between atoms: C31_47  and  O10_53
REMARK   18  A    between atoms: C32_49  and  O9_51
REMARK   19  A    between atoms: O9_51  and  C33_52
REMARK                            x       y       z     vdW  Elec       q    Type
REMARK                         _______ _______ _______ _____ _____    ______ ____
ROOT
ATOM      6  C   UNL     1      51.433  14.363  17.273  0.00  0.00    +0.008 C 
ATOM      7  C   UNL     1      50.745  15.687  17.304  0.00  0.00    +0.192 C 
ATOM     10  C   UNL     1      51.005  16.643  18.428  0.00  0.00    +0.127 C 
ATOM     11  C   UNL     1      50.258  16.518  19.754  0.00  0.00    +0.058 C 
ATOM     12  C   UNL     1      49.129  15.492  19.749  0.00  0.00    +0.085 C 
ATOM     13  C   UNL     1      49.587  14.058  19.954  0.00  0.00    -0.010 C 
ATOM     14  C   UNL     1      48.755  13.107  19.091  0.00  0.00    +0.032 C 
ATOM     15  C   UNL     1      51.056  13.793  19.840  0.00  0.00    +0.033 C 
ATOM     23  C   UNL     1      48.182  15.850  20.914  0.00  0.00    +0.016 C 
ATOM     24  C   UNL     1      47.521  17.198  20.682  0.00  0.00    +0.198 C 
ATOM     29  C   UNL     1      48.522  18.268  20.251  0.00  0.00    -0.072 C 
ATOM     30  C   UNL     1      48.342  18.549  18.759  0.00  0.00    +0.073 C 
ATOM     31  C   UNL     1      48.240  19.556  21.034  0.00  0.00    +0.276 C 
ATOM     37  O   UNL     1      49.233  20.542  20.738  0.00  0.00    -0.363 OA
ATOM     38  C   UNL     1      50.518  20.164  20.890  0.00  0.00    +0.491 C 
ATOM     39  O   UNL     1      51.293  20.809  21.555  0.00  0.00    -0.441 OA
ATOM     40  C   UNL     1      50.955  18.891  20.193  0.00  0.00    +0.063 C 
ATOM     41  C   UNL     1      49.946  17.796  20.541  0.00  0.00    +0.038 C 
ATOM     42  O   UNL     1      51.619  16.156  19.625  0.00  0.00    -0.307 OA
ATOM     43  C   UNL     1      51.788  13.650  18.546  0.00  0.00    -0.013 C 
ATOM     44  C   UNL     1      53.280  13.961  18.836  0.00  0.00    +0.020 C 
ATOM     45  C   UNL     1      51.793  12.131  18.208  0.00  0.00    +0.015 C 
ENDROOT
BRANCH  31  32
ATOM     32  C   UNL     1      46.889  20.098  20.645  0.00  0.00    -0.188 A 
ATOM     33  C   UNL     1      45.725  20.115  21.447  0.00  0.00    -0.047 A 
ATOM     34  C   UNL     1      44.754  20.686  20.712  0.00  0.00    +0.167 A 
ATOM     35  O   UNL     1      45.265  21.013  19.514  0.00  0.00    -0.172 OA
ATOM     36  C   UNL     1      46.561  20.664  19.470  0.00  0.00    +0.212 A 
ENDBRANCH  31  32
BRANCH   7   8
ATOM      8  O   UNL     1      49.358  15.553  17.011  0.00  0.00    -0.551 OA
ATOM      9  H   UNL     1      49.173  15.225  16.120  0.00  0.00    +0.368 HD
ENDBRANCH   7   8
BRANCH   6   5
ATOM      5  C   UNL     1      50.663  13.407  16.340  0.00  0.00    +0.044 C 
BRANCH   5   4
ATOM      4  C   UNL     1      51.351  13.351  15.001  0.00  0.00    +0.377 C 
ATOM     46  O   UNL     1      51.887  14.342  14.551  0.00  0.00    -0.458 OA
BRANCH   4   3
ATOM      1  C   UNL     1      51.301  10.837  12.129  0.00  0.00    +0.088 C 
ATOM      2  C   UNL     1      51.279  12.126  12.911  0.00  0.00    +0.066 C 
ATOM      3  C   UNL     1      51.372  12.100  14.242  0.00  0.00    -0.227 C 
ATOM     47  C   UNL     1      51.499  10.783  14.964  0.00  0.00    +0.094 C 
ENDBRANCH   4   3
ENDBRANCH   5   4
ENDBRANCH   6   5
BRANCH  15  16
ATOM     16  C   UNL     1      51.297  12.455  20.600  0.00  0.00    +0.235 C 
BRANCH  16  17
ATOM     17  O   UNL     1      52.677  12.356  20.962  0.00  0.00    -0.522 OA
ATOM     18  H   UNL     1      53.284  12.712  20.297  0.00  0.00    +0.385 HD
ENDBRANCH  16  17
BRANCH  16  19
ATOM     19  C   UNL     1      50.449  12.423  21.845  0.00  0.00    +0.434 C 
ATOM     22  O   UNL     1      50.306  13.424  22.505  0.00  0.00    -0.501 OA
BRANCH  19  20
ATOM     20  O   UNL     1      49.851  11.281  22.220  0.00  0.00    -0.345 OA
ATOM     21  C   UNL     1      49.507  10.358  21.185  0.00  0.00    +0.255 C 
ENDBRANCH  19  20
ENDBRANCH  16  19
ENDBRANCH  15  16
BRANCH  24  25
ATOM     25  O   UNL     1      46.534  17.054  19.660  0.00  0.00    -0.329 OA
BRANCH  25  26
ATOM     26  C   UNL     1      45.600  16.108  19.846  0.00  0.00    +0.458 C 
ATOM     27  C   UNL     1      44.595  16.249  20.961  0.00  0.00    +0.149 C 
ATOM     28  O   UNL     1      45.563  15.143  19.120  0.00  0.00    -0.510 OA
ENDBRANCH  25  26
ENDBRANCH  24  25
TORSDOF 11
ENDMDL
MODEL 8
REMARK VINA RESULT:      -3.5      1.671      2.189
REMARK  Name = ZINC95486116
REMARK  19 active torsions:
REMARK  status: ('A' for Active; 'I' for Inactive)
REMARK    1  A    between atoms: C1_1  and  C2_2
REMARK    2  A    between atoms: C3_3  and  C4_4
REMARK    3  A    between atoms: C3_3  and  C5_5
REMARK    4  A    between atoms: C5_5  and  C6_7
REMARK    5  A    between atoms: C6_7  and  C7_8
REMARK    6  A    between atoms: C8_10  and  O11_55
REMARK    7  A    between atoms: C13_19  and  O6_36
REMARK    8  A    between atoms: C14_21  and  C23_35
REMARK    9  A    between atoms: C18_28  and  C19_30
REMARK   10  A    between atoms: O6_36  and  C24_37
REMARK   11  A    between atoms: C24_37  and  C25_39
REMARK   12  A    between atoms: C26_40  and  C34_54
REMARK   13  A    between atoms: C27_42  and  C31_47
REMARK   14  A    between atoms: C28_44  and  C29_45
REMARK   15  A    between atoms: C28_44  and  C30_46
REMARK   16  A    between atoms: C31_47  and  C32_49
REMARK   17  A    between atoms: C31_47  and  O10_53
REMARK   18  A    between atoms: C32_49  and  O9_51
REMARK   19  A    between atoms: O9_51  and  C33_52
REMARK                            x       y       z     vdW  Elec       q    Type
REMARK                         _______ _______ _______ _____ _____    ______ ____
ROOT
ATOM      6  C   UNL     1      49.957  13.837  17.712  0.00  0.00    +0.008 C 
ATOM      7  C   UNL     1      49.281  15.143  17.460  0.00  0.00    +0.192 C 
ATOM     10  C   UNL     1      49.940  16.424  17.873  0.00  0.00    +0.127 C 
ATOM     11  C   UNL     1      49.826  16.939  19.306  0.00  0.00    +0.058 C 
ATOM     12  C   UNL     1      48.853  16.158  20.183  0.00  0.00    +0.085 C 
ATOM     13  C   UNL     1      49.426  14.878  20.766  0.00  0.00    -0.010 C 
ATOM     14  C   UNL     1      48.357  13.783  20.793  0.00  0.00    +0.032 C 
ATOM     15  C   UNL     1      50.722  14.394  20.195  0.00  0.00    +0.033 C 
ATOM     23  C   UNL     1      48.466  17.075  21.363  0.00  0.00    +0.016 C 
ATOM     24  C   UNL     1      47.702  18.294  20.875  0.00  0.00    +0.198 C 
ATOM     29  C   UNL     1      48.374  18.958  19.676  0.00  0.00    -0.072 C 
ATOM     30  C   UNL     1      47.571  18.643  18.414  0.00  0.00    +0.073 C 
ATOM     31  C   UNL     1      48.383  20.477  19.890  0.00  0.00    +0.276 C 
ATOM     37  O   UNL     1      49.108  21.119  18.838  0.00  0.00    -0.363 OA
ATOM     38  C   UNL     1      50.356  20.665  18.605  0.00  0.00    +0.491 C 
ATOM     39  O   UNL     1      51.305  21.410  18.567  0.00  0.00    -0.441 OA
ATOM     40  C   UNL     1      50.523  19.174  18.393  0.00  0.00    +0.063 C 
ATOM     41  C   UNL     1      49.810  18.455  19.539  0.00  0.00    +0.038 C 
ATOM     42  O   UNL     1      51.023  16.376  18.806  0.00  0.00    -0.307 OA
ATOM     43  C   UNL     1      50.849  13.651  18.906  0.00  0.00    -0.013 C 
ATOM     44  C   UNL     1      52.308  13.847  18.414  0.00  0.00    +0.020 C 
ATOM     45  C   UNL     1      50.788  12.137  19.263  0.00  0.00    +0.015 C 
ENDROOT
BRANCH  31  32
ATOM     32  C   UNL     1      46.968  20.995  19.887  0.00  0.00    -0.188 A 
ATOM     33  C   UNL     1      46.106  21.087  18.770  0.00  0.00    -0.047 A 
ATOM     34  C   UNL     1      44.945  21.600  19.214  0.00  0.00    +0.167 A 
ATOM     35  O   UNL     1      45.057  21.823  20.534  0.00  0.00    -0.172 OA
ATOM     36  C   UNL     1      46.280  21.452  20.948  0.00  0.00    +0.212 A 
ENDBRANCH  31  32
BRANCH   7   8
ATOM      8  O   UNL     1      47.907  15.091  17.834  0.00  0.00    -0.551 OA
ATOM      9  H   UNL     1      47.754  14.735  18.720  0.00  0.00    +0.368 HD
ENDBRANCH   7   8
BRANCH   6   5
ATOM      5  C   UNL     1      48.916  12.701  17.660  0.00  0.00    +0.044 C 
BRANCH   5   4
ATOM      4  C   UNL     1      48.933  12.068  16.292  0.00  0.00    +0.377 C 
ATOM     46  O   UNL     1      49.989  11.864  15.731  0.00  0.00    -0.458 OA
BRANCH   4   3
ATOM      1  C   UNL     1      45.474  10.595  15.635  0.00  0.00    +0.088 C 
ATOM      2  C   UNL     1      46.771  10.975  16.304  0.00  0.00    +0.066 C 
ATOM      3  C   UNL     1      47.675  11.700  15.642  0.00  0.00    -0.227 C 
ATOM     47  C   UNL     1      47.402  12.138  14.227  0.00  0.00    +0.094 C 
ENDBRANCH   4   3
ENDBRANCH   5   4
ENDBRANCH   6   5
BRANCH  15  16
ATOM     16  C   UNL     1      51.327  13.451  21.276  0.00  0.00    +0.235 C 
BRANCH  16  17
ATOM     17  O   UNL     1      51.915  12.313  20.640  0.00  0.00    -0.522 OA
ATOM     18  H   UNL     1      51.276  11.633  20.383  0.00  0.00    +0.385 HD
ENDBRANCH  16  17
BRANCH  16  19
ATOM     19  C   UNL     1      52.384  14.191  22.055  0.00  0.00    +0.434 C 
ATOM     22  O   UNL     1      52.233  15.360  22.317  0.00  0.00    -0.501 OA
BRANCH  19  20
ATOM     20  O   UNL     1      53.492  13.550  22.460  0.00  0.00    -0.345 OA
ATOM     21  C   UNL     1      54.701  14.309  22.505  0.00  0.00    +0.255 C 
ENDBRANCH  19  20
ENDBRANCH  16  19
ENDBRANCH  15  16
BRANCH  24  25
ATOM     25  O   UNL     1      46.385  17.888  20.498  0.00  0.00    -0.329 OA
BRANCH  25  26
ATOM     26  C   UNL     1      45.535  17.583  21.491  0.00  0.00    +0.458 C 
ATOM     27  C   UNL     1      44.843  16.244  21.506  0.00  0.00    +0.149 C 
ATOM     28  O   UNL     1      45.324  18.381  22.373  0.00  0.00    -0.510 OA
ENDBRANCH  25  26
ENDBRANCH  24  25
TORSDOF 11
ENDMDL
MODEL 9
REMARK VINA RESULT:      -3.1      2.084      3.380
REMARK  Name = ZINC95486116
REMARK  19 active torsions:
REMARK  status: ('A' for Active; 'I' for Inactive)
REMARK    1  A    between atoms: C1_1  and  C2_2
REMARK    2  A    between atoms: C3_3  and  C4_4
REMARK    3  A    between atoms: C3_3  and  C5_5
REMARK    4  A    between atoms: C5_5  and  C6_7
REMARK    5  A    between atoms: C6_7  and  C7_8
REMARK    6  A    between atoms: C8_10  and  O11_55
REMARK    7  A    between atoms: C13_19  and  O6_36
REMARK    8  A    between atoms: C14_21  and  C23_35
REMARK    9  A    between atoms: C18_28  and  C19_30
REMARK   10  A    between atoms: O6_36  and  C24_37
REMARK   11  A    between atoms: C24_37  and  C25_39
REMARK   12  A    between atoms: C26_40  and  C34_54
REMARK   13  A    between atoms: C27_42  and  C31_47
REMARK   14  A    between atoms: C28_44  and  C29_45
REMARK   15  A    between atoms: C28_44  and  C30_46
REMARK   16  A    between atoms: C31_47  and  C32_49
REMARK   17  A    between atoms: C31_47  and  O10_53
REMARK   18  A    between atoms: C32_49  and  O9_51
REMARK   19  A    between atoms: O9_51  and  C33_52
REMARK                            x       y       z     vdW  Elec       q    Type
REMARK                         _______ _______ _______ _____ _____    ______ ____
ROOT
ATOM      6  C   UNL     1      49.478  15.953  17.045  0.00  0.00    +0.008 C 
ATOM      7  C   UNL     1      48.095  16.513  17.089  0.00  0.00    +0.192 C 
ATOM     10  C   UNL     1      47.863  17.907  17.586  0.00  0.00    +0.127 C 
ATOM     11  C   UNL     1      47.747  18.199  19.080  0.00  0.00    +0.058 C 
ATOM     12  C   UNL     1      47.694  16.957  19.965  0.00  0.00    +0.085 C 
ATOM     13  C   UNL     1      49.052  16.344  20.263  0.00  0.00    -0.010 C 
ATOM     14  C   UNL     1      48.951  14.817  20.283  0.00  0.00    +0.032 C 
ATOM     15  C   UNL     1      50.209  16.827  19.445  0.00  0.00    +0.033 C 
ATOM     23  C   UNL     1      47.068  17.382  21.310  0.00  0.00    +0.016 C 
ATOM     24  C   UNL     1      45.627  17.823  21.123  0.00  0.00    +0.198 C 
ATOM     29  C   UNL     1      45.463  18.786  19.950  0.00  0.00    -0.072 C 
ATOM     30  C   UNL     1      44.802  18.048  18.786  0.00  0.00    +0.073 C 
ATOM     31  C   UNL     1      44.553  19.944  20.381  0.00  0.00    +0.276 C 
ATOM     37  O   UNL     1      44.473  20.922  19.342  0.00  0.00    -0.363 OA
ATOM     38  C   UNL     1      45.644  21.390  18.866  0.00  0.00    +0.491 C 
ATOM     39  O   UNL     1      45.874  22.573  18.800  0.00  0.00    -0.441 OA
ATOM     40  C   UNL     1      46.668  20.368  18.415  0.00  0.00    +0.063 C 
ATOM     41  C   UNL     1      46.825  19.337  19.533  0.00  0.00    +0.038 C 
ATOM     42  O   UNL     1      48.895  18.556  18.334  0.00  0.00    -0.307 OA
ATOM     43  C   UNL     1      50.508  16.368  18.056  0.00  0.00    -0.013 C 
ATOM     44  C   UNL     1      51.372  17.473  17.392  0.00  0.00    +0.020 C 
ATOM     45  C   UNL     1      51.493  15.171  18.191  0.00  0.00    +0.015 C 
ENDROOT
BRANCH  31  32
ATOM     32  C   UNL     1      43.168  19.420  20.660  0.00  0.00    -0.188 A 
ATOM     33  C   UNL     1      42.656  19.018  21.915  0.00  0.00    -0.047 A 
ATOM     34  C   UNL     1      41.387  18.622  21.710  0.00  0.00    +0.167 A 
ATOM     35  O   UNL     1      41.105  18.762  20.405  0.00  0.00    -0.172 OA
ATOM     36  C   UNL     1      42.179  19.251  19.764  0.00  0.00    +0.212 A 
ENDBRANCH  31  32
BRANCH   7   8
ATOM      8  O   UNL     1      47.179  15.575  17.646  0.00  0.00    -0.551 OA
ATOM      9  H   UNL     1      47.267  15.459  18.602  0.00  0.00    +0.368 HD
ENDBRANCH   7   8
BRANCH   6   5
ATOM      5  C   UNL     1      49.407  14.414  16.978  0.00  0.00    +0.044 C 
BRANCH   5   4
ATOM      4  C   UNL     1      50.270  13.921  15.845  0.00  0.00    +0.377 C 
ATOM     46  O   UNL     1      50.796  14.715  15.093  0.00  0.00    -0.458 OA
BRANCH   4   3
ATOM      1  C   UNL     1      49.751  10.277  14.838  0.00  0.00    +0.088 C 
ATOM      2  C   UNL     1      49.542  11.757  15.037  0.00  0.00    +0.066 C 
ATOM      3  C   UNL     1      50.474  12.485  15.654  0.00  0.00    -0.227 C 
ATOM     47  C   UNL     1      51.736  11.830  16.153  0.00  0.00    +0.094 C 
ENDBRANCH   4   3
ENDBRANCH   5   4
ENDBRANCH   6   5
BRANCH  15  16
ATOM     16  C   UNL     1      51.480  16.483  20.277  0.00  0.00    +0.235 C 
BRANCH  16  17
ATOM     17  O   UNL     1      52.598  17.208  19.758  0.00  0.00    -0.522 OA
ATOM     18  H   UNL     1      52.470  18.166  19.739  0.00  0.00    +0.385 HD
ENDBRANCH  16  17
BRANCH  16  19
ATOM     19  C   UNL     1      51.257  16.866  21.717  0.00  0.00    +0.434 C 
ATOM     22  O   UNL     1      50.853  16.045  22.505  0.00  0.00    -0.501 OA
BRANCH  19  20
ATOM     20  O   UNL     1      51.511  18.120  22.125  0.00  0.00    -0.345 OA
ATOM     21  C   UNL     1      50.482  19.089  21.920  0.00  0.00    +0.255 C 
ENDBRANCH  19  20
ENDBRANCH  16  19
ENDBRANCH  15  16
BRANCH  24  25
ATOM     25  O   UNL     1      44.822  16.667  20.886  0.00  0.00    -0.329 OA
BRANCH  25  26
ATOM     26  C   UNL     1      44.529  15.901  21.948  0.00  0.00    +0.458 C 
ATOM     27  C   UNL     1      45.527  14.889  22.447  0.00  0.00    +0.149 C 
ATOM     28  O   UNL     1      43.464  16.023  22.505  0.00  0.00    -0.510 OA
ENDBRANCH  25  26
ENDBRANCH  24  25
TORSDOF 11
ENDMDL
