MODEL 1
REMARK VINA RESULT:      -5.8      0.000      0.000
REMARK  Name = ZINC95485949
REMARK  6 active torsions:
REMARK  status: ('A' for Active; 'I' for Inactive)
REMARK    1  A    between atoms: C1_1  and  C2_2
REMARK    2  A    between atoms: C7_7  and  O1_8
REMARK    3  A    between atoms: C10_12  and  C14_18
REMARK    4  A    between atoms: C10_12  and  O4_19
REMARK    5  A    between atoms: C11_13  and  C12_15
REMARK    6  A    between atoms: C12_15  and  C13_17
REMARK                            x       y       z     vdW  Elec       q    Type
REMARK                         _______ _______ _______ _____ _____    ______ ____
ROOT
ATOM      1  C   UNL     1      40.298  19.660  17.987  0.00  0.00    +0.108 C 
ATOM      2  C   UNL     1      41.449  20.434  18.576  0.00  0.00    -0.071 A 
ATOM      3  C   UNL     1      42.549  19.757  19.071  0.00  0.00    +0.031 A 
ATOM      4  C   UNL     1      43.613  20.454  19.614  0.00  0.00    -0.026 A 
ATOM      5  C   UNL     1      43.570  21.850  19.654  0.00  0.00    -0.156 A 
ATOM      6  C   UNL     1      44.703  22.609  20.219  0.00  0.00    +0.405 C 
ATOM      7  C   UNL     1      45.759  21.834  20.978  0.00  0.00    +0.034 C 
ATOM      8  C   UNL     1      46.047  20.553  20.184  0.00  0.00    +0.157 C 
ATOM     11  C   UNL     1      46.455  20.918  18.755  0.00  0.00    +0.024 C 
ATOM     12  O   UNL     1      44.782  23.811  20.080  0.00  0.00    -0.441 OA
ATOM     13  C   UNL     1      42.457  22.532  19.156  0.00  0.00    +0.061 A 
ATOM     14  C   UNL     1      44.791  19.686  20.150  0.00  0.00    +0.033 C 
ATOM     18  C   UNL     1      41.402  21.821  18.613  0.00  0.00    +0.096 A 
ENDROOT
BRANCH  14  15
ATOM     15  C   UNL     1      45.042  18.489  19.270  0.00  0.00    +0.369 C 
ATOM     16  C   UNL     1      44.957  17.100  19.846  0.00  0.00    +0.078 C 
ATOM     17  O   UNL     1      45.312  18.643  18.103  0.00  0.00    -0.442 OA
ENDBRANCH  14  15
BRANCH   8   9
ATOM      9  O   UNL     1      47.108  19.831  20.813  0.00  0.00    -0.550 OA
ATOM     10  H   UNL     1      47.336  20.156  21.695  0.00  0.00    +0.389 HD
ENDBRANCH   8   9
BRANCH  18  19
ATOM     19  O   UNL     1      40.318  22.478  18.121  0.00  0.00    -0.489 OA
ATOM     20  H   UNL     1      39.733  22.836  18.803  0.00  0.00    +0.392 HD
ENDBRANCH  18  19
TORSDOF 3
ENDMDL
MODEL 2
REMARK VINA RESULT:      -5.1      2.065      4.714
REMARK  Name = ZINC95485949
REMARK  6 active torsions:
REMARK  status: ('A' for Active; 'I' for Inactive)
REMARK    1  A    between atoms: C1_1  and  C2_2
REMARK    2  A    between atoms: C7_7  and  O1_8
REMARK    3  A    between atoms: C10_12  and  C14_18
REMARK    4  A    between atoms: C10_12  and  O4_19
REMARK    5  A    between atoms: C11_13  and  C12_15
REMARK    6  A    between atoms: C12_15  and  C13_17
REMARK                            x       y       z     vdW  Elec       q    Type
REMARK                         _______ _______ _______ _____ _____    ______ ____
ROOT
ATOM      1  C   UNL     1      46.760  17.516  17.249  0.00  0.00    +0.108 C 
ATOM      2  C   UNL     1      46.867  18.651  18.235  0.00  0.00    -0.071 A 
ATOM      3  C   UNL     1      45.791  19.498  18.427  0.00  0.00    +0.031 A 
ATOM      4  C   UNL     1      45.875  20.543  19.329  0.00  0.00    -0.026 A 
ATOM      5  C   UNL     1      47.057  20.734  20.049  0.00  0.00    -0.156 A 
ATOM      6  C   UNL     1      47.159  21.837  21.024  0.00  0.00    +0.405 C 
ATOM      7  C   UNL     1      46.067  22.886  21.015  0.00  0.00    +0.034 C 
ATOM      8  C   UNL     1      44.728  22.152  20.862  0.00  0.00    +0.157 C 
ATOM     11  C   UNL     1      44.582  21.117  21.979  0.00  0.00    +0.024 C 
ATOM     12  O   UNL     1      48.086  21.901  21.804  0.00  0.00    -0.441 OA
ATOM     13  C   UNL     1      48.145  19.879  19.852  0.00  0.00    +0.061 A 
ATOM     14  C   UNL     1      44.688  21.450  19.508  0.00  0.00    +0.033 C 
ATOM     18  C   UNL     1      48.044  18.836  18.949  0.00  0.00    +0.096 A 
ENDROOT
BRANCH  14  15
ATOM     15  C   UNL     1      43.425  20.635  19.412  0.00  0.00    +0.369 C 
ATOM     16  C   UNL     1      43.421  19.195  19.855  0.00  0.00    +0.078 C 
ATOM     17  O   UNL     1      42.414  21.135  18.980  0.00  0.00    -0.442 OA
ENDBRANCH  14  15
BRANCH   8   9
ATOM      9  O   UNL     1      43.656  23.095  20.942  0.00  0.00    -0.550 OA
ATOM     10  H   UNL     1      43.066  22.957  21.695  0.00  0.00    +0.389 HD
ENDBRANCH   8   9
BRANCH  18  19
ATOM     19  O   UNL     1      49.096  17.996  18.757  0.00  0.00    -0.489 OA
ATOM     20  H   UNL     1      48.863  17.169  18.313  0.00  0.00    +0.392 HD
ENDBRANCH  18  19
TORSDOF 3
ENDMDL
MODEL 3
REMARK VINA RESULT:      -5.1     20.623     21.853
REMARK  Name = ZINC95485949
REMARK  6 active torsions:
REMARK  status: ('A' for Active; 'I' for Inactive)
REMARK    1  A    between atoms: C1_1  and  C2_2
REMARK    2  A    between atoms: C7_7  and  O1_8
REMARK    3  A    between atoms: C10_12  and  C14_18
REMARK    4  A    between atoms: C10_12  and  O4_19
REMARK    5  A    between atoms: C11_13  and  C12_15
REMARK    6  A    between atoms: C12_15  and  C13_17
REMARK                            x       y       z     vdW  Elec       q    Type
REMARK                         _______ _______ _______ _____ _____    ______ ____
ROOT
ATOM      1  C   UNL     1      50.951  32.362   1.543  0.00  0.00    +0.108 C 
ATOM      2  C   UNL     1      51.539  32.746   2.877  0.00  0.00    -0.071 A 
ATOM      3  C   UNL     1      52.886  32.549   3.115  0.00  0.00    +0.031 A 
ATOM      4  C   UNL     1      53.440  32.898   4.333  0.00  0.00    -0.026 A 
ATOM      5  C   UNL     1      52.626  33.455   5.322  0.00  0.00    -0.156 A 
ATOM      6  C   UNL     1      53.203  33.844   6.624  0.00  0.00    +0.405 C 
ATOM      7  C   UNL     1      54.610  33.378   6.936  0.00  0.00    +0.034 C 
ATOM      8  C   UNL     1      55.449  33.569   5.665  0.00  0.00    +0.157 C 
ATOM     11  C   UNL     1      55.367  35.029   5.213  0.00  0.00    +0.024 C 
ATOM     12  O   UNL     1      52.572  34.512   7.415  0.00  0.00    -0.441 OA
ATOM     13  C   UNL     1      51.264  33.651   5.082  0.00  0.00    +0.061 A 
ATOM     14  C   UNL     1      54.909  32.663   4.562  0.00  0.00    +0.033 C 
ATOM     18  C   UNL     1      50.725  33.301   3.856  0.00  0.00    +0.096 A 
ENDROOT
BRANCH  14  15
ATOM     15  C   UNL     1      55.658  32.942   3.284  0.00  0.00    +0.369 C 
ATOM     16  C   UNL     1      56.576  31.897   2.706  0.00  0.00    +0.078 C 
ATOM     17  O   UNL     1      55.522  34.003   2.723  0.00  0.00    -0.442 OA
ENDBRANCH  14  15
BRANCH   8   9
ATOM      9  O   UNL     1      56.811  33.229   5.937  0.00  0.00    -0.550 OA
ATOM     10  H   UNL     1      57.412  33.393   5.198  0.00  0.00    +0.389 HD
ENDBRANCH   8   9
BRANCH  18  19
ATOM     19  O   UNL     1      49.402  33.494   3.612  0.00  0.00    -0.489 OA
ATOM     20  H   UNL     1      49.164  34.417   3.444  0.00  0.00    +0.392 HD
ENDBRANCH  18  19
TORSDOF 3
ENDMDL
MODEL 4
REMARK VINA RESULT:      -5.0     20.748     22.407
REMARK  Name = ZINC95485949
REMARK  6 active torsions:
REMARK  status: ('A' for Active; 'I' for Inactive)
REMARK    1  A    between atoms: C1_1  and  C2_2
REMARK    2  A    between atoms: C7_7  and  O1_8
REMARK    3  A    between atoms: C10_12  and  C14_18
REMARK    4  A    between atoms: C10_12  and  O4_19
REMARK    5  A    between atoms: C11_13  and  C12_15
REMARK    6  A    between atoms: C12_15  and  C13_17
REMARK                            x       y       z     vdW  Elec       q    Type
REMARK                         _______ _______ _______ _____ _____    ______ ____
ROOT
ATOM      1  C   UNL     1      51.082  33.417   6.169  0.00  0.00    +0.108 C 
ATOM      2  C   UNL     1      52.567  33.380   5.913  0.00  0.00    -0.071 A 
ATOM      3  C   UNL     1      53.055  32.728   4.796  0.00  0.00    +0.031 A 
ATOM      4  C   UNL     1      54.415  32.687   4.548  0.00  0.00    -0.026 A 
ATOM      5  C   UNL     1      55.293  33.315   5.436  0.00  0.00    -0.156 A 
ATOM      6  C   UNL     1      56.746  33.291   5.179  0.00  0.00    +0.405 C 
ATOM      7  C   UNL     1      57.255  32.357   4.101  0.00  0.00    +0.034 C 
ATOM      8  C   UNL     1      56.292  32.466   2.910  0.00  0.00    +0.157 C 
ATOM     11  C   UNL     1      56.191  33.926   2.466  0.00  0.00    +0.024 C 
ATOM     12  O   UNL     1      57.505  33.994   5.811  0.00  0.00    -0.441 OA
ATOM     13  C   UNL     1      54.799  33.971   6.566  0.00  0.00    +0.061 A 
ATOM     14  C   UNL     1      54.913  31.963   3.327  0.00  0.00    +0.033 C 
ATOM     18  C   UNL     1      53.435  34.007   6.798  0.00  0.00    +0.096 A 
ENDROOT
BRANCH  14  15
ATOM     15  C   UNL     1      53.945  32.182   2.194  0.00  0.00    +0.369 C 
ATOM     16  C   UNL     1      53.041  33.387   2.197  0.00  0.00    +0.078 C 
ATOM     17  O   UNL     1      53.894  31.392   1.282  0.00  0.00    -0.442 OA
ENDBRANCH  14  15
BRANCH   8   9
ATOM      9  O   UNL     1      56.783  31.670   1.828  0.00  0.00    -0.550 OA
ATOM     10  H   UNL     1      57.277  30.888   2.108  0.00  0.00    +0.389 HD
ENDBRANCH   8   9
BRANCH  18  19
ATOM     19  O   UNL     1      52.946  34.649   7.892  0.00  0.00    -0.489 OA
ATOM     20  H   UNL     1      53.465  34.506   8.696  0.00  0.00    +0.392 HD
ENDBRANCH  18  19
TORSDOF 3
ENDMDL
MODEL 5
REMARK VINA RESULT:      -5.0     20.646     22.433
REMARK  Name = ZINC95485949
REMARK  6 active torsions:
REMARK  status: ('A' for Active; 'I' for Inactive)
REMARK    1  A    between atoms: C1_1  and  C2_2
REMARK    2  A    between atoms: C7_7  and  O1_8
REMARK    3  A    between atoms: C10_12  and  C14_18
REMARK    4  A    between atoms: C10_12  and  O4_19
REMARK    5  A    between atoms: C11_13  and  C12_15
REMARK    6  A    between atoms: C12_15  and  C13_17
REMARK                            x       y       z     vdW  Elec       q    Type
REMARK                         _______ _______ _______ _____ _____    ______ ____
ROOT
ATOM      1  C   UNL     1      57.650  32.977   5.260  0.00  0.00    +0.108 C 
ATOM      2  C   UNL     1      56.285  32.866   4.630  0.00  0.00    -0.071 A 
ATOM      3  C   UNL     1      55.157  33.127   5.385  0.00  0.00    +0.031 A 
ATOM      4  C   UNL     1      53.898  33.030   4.821  0.00  0.00    -0.026 A 
ATOM      5  C   UNL     1      53.776  32.669   3.477  0.00  0.00    -0.156 A 
ATOM      6  C   UNL     1      52.441  32.572   2.855  0.00  0.00    +0.405 C 
ATOM      7  C   UNL     1      51.235  32.611   3.771  0.00  0.00    +0.034 C 
ATOM      8  C   UNL     1      51.490  33.704   4.817  0.00  0.00    +0.157 C 
ATOM     11  C   UNL     1      51.773  35.031   4.112  0.00  0.00    +0.024 C 
ATOM     12  O   UNL     1      52.315  32.465   1.654  0.00  0.00    -0.441 OA
ATOM     13  C   UNL     1      54.917  32.402   2.715  0.00  0.00    +0.061 A 
ATOM     14  C   UNL     1      52.692  33.315   5.673  0.00  0.00    +0.033 C 
ATOM     18  C   UNL     1      56.169  32.507   3.294  0.00  0.00    +0.096 A 
ENDROOT
BRANCH  14  15
ATOM     15  C   UNL     1      53.010  34.443   6.619  0.00  0.00    +0.369 C 
ATOM     16  C   UNL     1      54.175  35.357   6.338  0.00  0.00    +0.078 C 
ATOM     17  O   UNL     1      52.332  34.617   7.603  0.00  0.00    -0.442 OA
ENDBRANCH  14  15
BRANCH   8   9
ATOM      9  O   UNL     1      50.336  33.843   5.651  0.00  0.00    -0.550 OA
ATOM     10  H   UNL     1      49.764  34.584   5.410  0.00  0.00    +0.389 HD
ENDBRANCH   8   9
BRANCH  18  19
ATOM     19  O   UNL     1      57.283  32.255   2.557  0.00  0.00    -0.489 OA
ATOM     20  H   UNL     1      57.810  31.512   2.882  0.00  0.00    +0.392 HD
ENDBRANCH  18  19
TORSDOF 3
ENDMDL
MODEL 6
REMARK VINA RESULT:      -4.8      2.289      5.871
REMARK  Name = ZINC95485949
REMARK  6 active torsions:
REMARK  status: ('A' for Active; 'I' for Inactive)
REMARK    1  A    between atoms: C1_1  and  C2_2
REMARK    2  A    between atoms: C7_7  and  O1_8
REMARK    3  A    between atoms: C10_12  and  C14_18
REMARK    4  A    between atoms: C10_12  and  O4_19
REMARK    5  A    between atoms: C11_13  and  C12_15
REMARK    6  A    between atoms: C12_15  and  C13_17
REMARK                            x       y       z     vdW  Elec       q    Type
REMARK                         _______ _______ _______ _____ _____    ______ ____
ROOT
ATOM      1  C   UNL     1      50.100  20.982  18.815  0.00  0.00    +0.108 C 
ATOM      2  C   UNL     1      48.876  20.131  19.038  0.00  0.00    -0.071 A 
ATOM      3  C   UNL     1      47.770  20.671  19.668  0.00  0.00    +0.031 A 
ATOM      4  C   UNL     1      46.639  19.903  19.879  0.00  0.00    -0.026 A 
ATOM      5  C   UNL     1      46.623  18.575  19.446  0.00  0.00    -0.156 A 
ATOM      6  C   UNL     1      45.420  17.745  19.652  0.00  0.00    +0.405 C 
ATOM      7  C   UNL     1      44.340  18.287  20.565  0.00  0.00    +0.034 C 
ATOM      8  C   UNL     1      44.167  19.776  20.237  0.00  0.00    +0.157 C 
ATOM     11  C   UNL     1      43.856  19.938  18.748  0.00  0.00    +0.024 C 
ATOM     12  O   UNL     1      45.302  16.667  19.110  0.00  0.00    -0.441 OA
ATOM     13  C   UNL     1      47.742  18.029  18.813  0.00  0.00    +0.061 A 
ATOM     14  C   UNL     1      45.456  20.521  20.573  0.00  0.00    +0.033 C 
ATOM     18  C   UNL     1      48.864  18.812  18.605  0.00  0.00    +0.096 A 
ENDROOT
BRANCH  14  15
ATOM     15  C   UNL     1      45.323  21.957  20.139  0.00  0.00    +0.369 C 
ATOM     16  C   UNL     1      45.219  23.051  21.170  0.00  0.00    +0.078 C 
ATOM     17  O   UNL     1      45.299  22.233  18.963  0.00  0.00    -0.442 OA
ENDBRANCH  14  15
BRANCH   8   9
ATOM      9  O   UNL     1      43.091  20.312  21.011  0.00  0.00    -0.550 OA
ATOM     10  H   UNL     1      42.273  19.799  20.956  0.00  0.00    +0.389 HD
ENDBRANCH   8   9
BRANCH  18  19
ATOM     19  O   UNL     1      49.954  18.289  17.984  0.00  0.00    -0.489 OA
ATOM     20  H   UNL     1      49.766  17.499  17.459  0.00  0.00    +0.392 HD
ENDBRANCH  18  19
TORSDOF 3
ENDMDL
MODEL 7
REMARK VINA RESULT:      -4.8     20.761     22.404
REMARK  Name = ZINC95485949
REMARK  6 active torsions:
REMARK  status: ('A' for Active; 'I' for Inactive)
REMARK    1  A    between atoms: C1_1  and  C2_2
REMARK    2  A    between atoms: C7_7  and  O1_8
REMARK    3  A    between atoms: C10_12  and  C14_18
REMARK    4  A    between atoms: C10_12  and  O4_19
REMARK    5  A    between atoms: C11_13  and  C12_15
REMARK    6  A    between atoms: C12_15  and  C13_17
REMARK                            x       y       z     vdW  Elec       q    Type
REMARK                         _______ _______ _______ _____ _____    ______ ____
ROOT
ATOM      1  C   UNL     1      54.417  31.565   0.140  0.00  0.00    +0.108 C 
ATOM      2  C   UNL     1      53.812  31.990   1.454  0.00  0.00    -0.071 A 
ATOM      3  C   UNL     1      54.627  32.192   2.552  0.00  0.00    +0.031 A 
ATOM      4  C   UNL     1      54.086  32.582   3.764  0.00  0.00    -0.026 A 
ATOM      5  C   UNL     1      52.707  32.774   3.868  0.00  0.00    -0.156 A 
ATOM      6  C   UNL     1      52.114  33.202   5.150  0.00  0.00    +0.405 C 
ATOM      7  C   UNL     1      52.996  33.161   6.380  0.00  0.00    +0.034 C 
ATOM      8  C   UNL     1      54.371  33.711   5.977  0.00  0.00    +0.157 C 
ATOM     11  C   UNL     1      54.206  35.111   5.381  0.00  0.00    +0.024 C 
ATOM     12  O   UNL     1      50.961  33.573   5.215  0.00  0.00    -0.441 OA
ATOM     13  C   UNL     1      51.883  32.567   2.759  0.00  0.00    +0.061 A 
ATOM     14  C   UNL     1      55.002  32.786   4.940  0.00  0.00    +0.033 C 
ATOM     18  C   UNL     1      52.440  32.180   1.552  0.00  0.00    +0.096 A 
ENDROOT
BRANCH  14  15
ATOM     15  C   UNL     1      56.295  33.393   4.460  0.00  0.00    +0.369 C 
ATOM     16  C   UNL     1      57.610  32.777   4.859  0.00  0.00    +0.078 C 
ATOM     17  O   UNL     1      56.277  34.374   3.755  0.00  0.00    -0.442 OA
ENDBRANCH  14  15
BRANCH   8   9
ATOM      9  O   UNL     1      55.214  33.779   7.130  0.00  0.00    -0.550 OA
ATOM     10  H   UNL     1      55.185  32.988   7.685  0.00  0.00    +0.389 HD
ENDBRANCH   8   9
BRANCH  18  19
ATOM     19  O   UNL     1      51.645  31.983   0.467  0.00  0.00    -0.489 OA
ATOM     20  H   UNL     1      51.887  31.210  -0.062  0.00  0.00    +0.392 HD
ENDBRANCH  18  19
TORSDOF 3
ENDMDL
MODEL 8
REMARK VINA RESULT:      -4.8      7.640      9.011
REMARK  Name = ZINC95485949
REMARK  6 active torsions:
REMARK  status: ('A' for Active; 'I' for Inactive)
REMARK    1  A    between atoms: C1_1  and  C2_2
REMARK    2  A    between atoms: C7_7  and  O1_8
REMARK    3  A    between atoms: C10_12  and  C14_18
REMARK    4  A    between atoms: C10_12  and  O4_19
REMARK    5  A    between atoms: C11_13  and  C12_15
REMARK    6  A    between atoms: C12_15  and  C13_17
REMARK                            x       y       z     vdW  Elec       q    Type
REMARK                         _______ _______ _______ _____ _____    ______ ____
ROOT
ATOM      1  C   UNL     1      52.639  20.078  22.505  0.00  0.00    +0.108 C 
ATOM      2  C   UNL     1      52.443  20.180  21.015  0.00  0.00    -0.071 A 
ATOM      3  C   UNL     1      52.504  19.041  20.234  0.00  0.00    +0.031 A 
ATOM      4  C   UNL     1      52.326  19.119  18.865  0.00  0.00    -0.026 A 
ATOM      5  C   UNL     1      52.079  20.361  18.276  0.00  0.00    -0.156 A 
ATOM      6  C   UNL     1      51.874  20.461  16.818  0.00  0.00    +0.405 C 
ATOM      7  C   UNL     1      52.203  19.245  15.977  0.00  0.00    +0.034 C 
ATOM      8  C   UNL     1      51.664  18.015  16.720  0.00  0.00    +0.157 C 
ATOM     11  C   UNL     1      50.169  18.195  16.989  0.00  0.00    +0.024 C 
ATOM     12  O   UNL     1      51.458  21.482  16.312  0.00  0.00    -0.441 OA
ATOM     13  C   UNL     1      52.021  21.513  19.065  0.00  0.00    +0.061 A 
ATOM     14  C   UNL     1      52.405  17.860  18.045  0.00  0.00    +0.033 C 
ATOM     18  C   UNL     1      52.198  21.418  20.434  0.00  0.00    +0.096 A 
ENDROOT
BRANCH  14  15
ATOM     15  C   UNL     1      51.792  16.724  18.823  0.00  0.00    +0.369 C 
ATOM     16  C   UNL     1      52.585  15.469  19.077  0.00  0.00    +0.078 C 
ATOM     17  O   UNL     1      50.664  16.820  19.244  0.00  0.00    -0.442 OA
ENDBRANCH  14  15
BRANCH   8   9
ATOM      9  O   UNL     1      51.868  16.848  15.920  0.00  0.00    -0.550 OA
ATOM     10  H   UNL     1      51.163  16.682  15.280  0.00  0.00    +0.389 HD
ENDBRANCH   8   9
BRANCH  18  19
ATOM     19  O   UNL     1      52.136  22.533  21.208  0.00  0.00    -0.489 OA
ATOM     20  H   UNL     1      51.238  22.859  21.358  0.00  0.00    +0.392 HD
ENDBRANCH  18  19
TORSDOF 3
ENDMDL
MODEL 9
REMARK VINA RESULT:      -4.8     20.330     21.863
REMARK  Name = ZINC95485949
REMARK  6 active torsions:
REMARK  status: ('A' for Active; 'I' for Inactive)
REMARK    1  A    between atoms: C1_1  and  C2_2
REMARK    2  A    between atoms: C7_7  and  O1_8
REMARK    3  A    between atoms: C10_12  and  C14_18
REMARK    4  A    between atoms: C10_12  and  O4_19
REMARK    5  A    between atoms: C11_13  and  C12_15
REMARK    6  A    between atoms: C12_15  and  C13_17
REMARK                            x       y       z     vdW  Elec       q    Type
REMARK                         _______ _______ _______ _____ _____    ______ ____
ROOT
ATOM      1  C   UNL     1      49.037  34.538   2.558  0.00  0.00    +0.108 C 
ATOM      2  C   UNL     1      50.437  34.022   2.768  0.00  0.00    -0.071 A 
ATOM      3  C   UNL     1      51.132  34.367   3.913  0.00  0.00    +0.031 A 
ATOM      4  C   UNL     1      52.417  33.900   4.120  0.00  0.00    -0.026 A 
ATOM      5  C   UNL     1      53.008  33.072   3.163  0.00  0.00    -0.156 A 
ATOM      6  C   UNL     1      54.374  32.555   3.374  0.00  0.00    +0.405 C 
ATOM      7  C   UNL     1      55.188  33.158   4.500  0.00  0.00    +0.034 C 
ATOM      8  C   UNL     1      54.255  33.307   5.709  0.00  0.00    +0.157 C 
ATOM     11  C   UNL     1      53.639  31.949   6.050  0.00  0.00    +0.024 C 
ATOM     12  O   UNL     1      54.828  31.679   2.669  0.00  0.00    -0.441 OA
ATOM     13  C   UNL     1      52.307  32.726   2.004  0.00  0.00    +0.061 A 
ATOM     14  C   UNL     1      53.146  34.300   5.374  0.00  0.00    +0.033 C 
ATOM     18  C   UNL     1      51.020  33.198   1.814  0.00  0.00    +0.096 A 
ENDROOT
BRANCH  14  15
ATOM     15  C   UNL     1      52.168  34.353   6.519  0.00  0.00    +0.369 C 
ATOM     16  C   UNL     1      51.027  33.371   6.582  0.00  0.00    +0.078 C 
ATOM     17  O   UNL     1      52.298  35.183   7.387  0.00  0.00    -0.442 OA
ENDBRANCH  14  15
BRANCH   8   9
ATOM      9  O   UNL     1      55.002  33.788   6.830  0.00  0.00    -0.550 OA
ATOM     10  H   UNL     1      55.702  33.188   7.122  0.00  0.00    +0.389 HD
ENDBRANCH   8   9
BRANCH  18  19
ATOM     19  O   UNL     1      50.330  32.861   0.693  0.00  0.00    -0.489 OA
ATOM     20  H   UNL     1      49.384  33.059   0.739  0.00  0.00    +0.392 HD
ENDBRANCH  18  19
TORSDOF 3
ENDMDL
