MODEL 1
REMARK VINA RESULT:      -5.4      0.000      0.000
REMARK  Name = ZINC00900216
REMARK  6 active torsions:
REMARK  status: ('A' for Active; 'I' for Inactive)
REMARK    1  A    between atoms: C1_1  and  O1_2
REMARK    2  A    between atoms: O1_2  and  C2_3
REMARK    3  A    between atoms: C7_8  and  O2_9
REMARK    4  A    between atoms: O2_9  and  C8_10
REMARK    5  A    between atoms: C11_14  and  O3_15
REMARK    6  A    between atoms: O3_15  and  C12_16
REMARK                            x       y       z     vdW  Elec       q    Type
REMARK                         _______ _______ _______ _____ _____    ______ ____
ROOT
ATOM      3  C   UNL     1      46.145  21.770  21.343  0.00  0.00    +0.134 A 
ATOM      4  C   UNL     1      45.280  20.781  20.975  0.00  0.00    +0.037 A 
ATOM      5  C   UNL     1      44.094  21.110  20.297  0.00  0.00    -0.116 A 
ATOM      6  C   UNL     1      43.804  22.466  20.001  0.00  0.00    +0.226 A 
ATOM      7  N   UNL     1      42.680  22.795  19.356  0.00  0.00    -0.463 N 
ATOM      8  H   UNL     1      42.502  23.729  19.164  0.00  0.00    +0.447 HD
ATOM      9  C   UNL     1      41.803  21.884  18.973  0.00  0.00    +0.335 A 
ATOM     10  C   UNL     1      42.028  20.516  19.235  0.00  0.00    -0.197 A 
ATOM     11  C   UNL     1      40.868  19.810  18.675  0.00  0.00    +0.036 A 
ATOM     12  C   UNL     1      40.077  20.753  18.149  0.00  0.00    +0.281 A 
ATOM     13  O   UNL     1      40.624  21.970  18.322  0.00  0.00    -0.169 OA
ATOM     14  C   UNL     1      44.716  23.461  20.394  0.00  0.00    -0.071 A 
ATOM     15  C   UNL     1      43.180  20.112  19.902  0.00  0.00    +0.327 A 
ATOM     18  C   UNL     1      45.858  23.113  21.056  0.00  0.00    +0.232 A 
ENDROOT
BRANCH   3   2
ATOM      1  C   UNL     1      48.324  20.824  21.235  0.00  0.00    +0.269 C 
ATOM      2  O   UNL     1      47.292  21.452  21.999  0.00  0.00    -0.285 OA
ENDBRANCH   3   2
BRANCH  15  16
ATOM     16  O   UNL     1      43.418  18.802  20.163  0.00  0.00    -0.318 OA
ATOM     17  C   UNL     1      42.851  18.267  21.361  0.00  0.00    +0.292 C 
ENDBRANCH  15  16
BRANCH  18  19
ATOM     19  O   UNL     1      46.733  24.080  21.438  0.00  0.00    -0.273 OA
ATOM     20  C   UNL     1      46.336  25.436  21.218  0.00  0.00    +0.276 C 
ENDBRANCH  18  19
TORSDOF 3
ENDMDL
MODEL 2
REMARK VINA RESULT:      -4.9      3.486      5.925
REMARK  Name = ZINC00900216
REMARK  6 active torsions:
REMARK  status: ('A' for Active; 'I' for Inactive)
REMARK    1  A    between atoms: C1_1  and  O1_2
REMARK    2  A    between atoms: O1_2  and  C2_3
REMARK    3  A    between atoms: C7_8  and  O2_9
REMARK    4  A    between atoms: O2_9  and  C8_10
REMARK    5  A    between atoms: C11_14  and  O3_15
REMARK    6  A    between atoms: O3_15  and  C12_16
REMARK                            x       y       z     vdW  Elec       q    Type
REMARK                         _______ _______ _______ _____ _____    ______ ____
ROOT
ATOM      3  C   UNL     1      45.019  21.550  19.814  0.00  0.00    +0.134 A 
ATOM      4  C   UNL     1      46.306  21.099  19.759  0.00  0.00    +0.037 A 
ATOM      5  C   UNL     1      46.602  19.925  19.046  0.00  0.00    -0.116 A 
ATOM      6  C   UNL     1      45.563  19.217  18.390  0.00  0.00    +0.226 A 
ATOM      7  N   UNL     1      45.829  18.100  17.706  0.00  0.00    -0.463 N 
ATOM      8  H   UNL     1      45.102  17.632  17.265  0.00  0.00    +0.447 HD
ATOM      9  C   UNL     1      47.053  17.612  17.615  0.00  0.00    +0.335 A 
ATOM     10  C   UNL     1      48.135  18.265  18.244  0.00  0.00    -0.197 A 
ATOM     11  C   UNL     1      49.321  17.455  17.934  0.00  0.00    +0.036 A 
ATOM     12  C   UNL     1      48.888  16.434  17.185  0.00  0.00    +0.281 A 
ATOM     13  O   UNL     1      47.558  16.524  16.996  0.00  0.00    -0.169 OA
ATOM     14  C   UNL     1      44.248  19.710  18.465  0.00  0.00    -0.071 A 
ATOM     15  C   UNL     1      47.921  19.433  18.970  0.00  0.00    +0.327 A 
ATOM     18  C   UNL     1      43.989  20.849  19.169  0.00  0.00    +0.232 A 
ENDROOT
BRANCH   3   2
ATOM      1  C   UNL     1      44.854  22.629  21.927  0.00  0.00    +0.269 C 
ATOM      2  O   UNL     1      44.733  22.686  20.504  0.00  0.00    -0.285 OA
ENDBRANCH   3   2
BRANCH  15  16
ATOM     16  O   UNL     1      48.945  20.077  19.581  0.00  0.00    -0.318 OA
ATOM     17  C   UNL     1      49.793  20.878  18.755  0.00  0.00    +0.292 C 
ENDBRANCH  15  16
BRANCH  18  19
ATOM     19  O   UNL     1      42.714  21.316  19.243  0.00  0.00    -0.273 OA
ATOM     20  C   UNL     1      41.705  20.551  18.582  0.00  0.00    +0.276 C 
ENDBRANCH  18  19
TORSDOF 3
ENDMDL
MODEL 3
REMARK VINA RESULT:      -4.8      4.322      5.976
REMARK  Name = ZINC00900216
REMARK  6 active torsions:
REMARK  status: ('A' for Active; 'I' for Inactive)
REMARK    1  A    between atoms: C1_1  and  O1_2
REMARK    2  A    between atoms: O1_2  and  C2_3
REMARK    3  A    between atoms: C7_8  and  O2_9
REMARK    4  A    between atoms: O2_9  and  C8_10
REMARK    5  A    between atoms: C11_14  and  O3_15
REMARK    6  A    between atoms: O3_15  and  C12_16
REMARK                            x       y       z     vdW  Elec       q    Type
REMARK                         _______ _______ _______ _____ _____    ______ ____
ROOT
ATOM      3  C   UNL     1      44.000  19.032  20.444  0.00  0.00    +0.134 A 
ATOM      4  C   UNL     1      44.335  17.711  20.518  0.00  0.00    +0.037 A 
ATOM      5  C   UNL     1      45.078  17.123  19.481  0.00  0.00    -0.116 A 
ATOM      6  C   UNL     1      45.475  17.905  18.366  0.00  0.00    +0.226 A 
ATOM      7  N   UNL     1      46.184  17.360  17.372  0.00  0.00    -0.463 N 
ATOM      8  H   UNL     1      46.444  17.914  16.620  0.00  0.00    +0.447 HD
ATOM      9  C   UNL     1      46.539  16.088  17.385  0.00  0.00    +0.335 A 
ATOM     10  C   UNL     1      46.178  15.252  18.463  0.00  0.00    -0.197 A 
ATOM     11  C   UNL     1      46.734  13.930  18.142  0.00  0.00    +0.036 A 
ATOM     12  C   UNL     1      47.352  14.063  16.963  0.00  0.00    +0.281 A 
ATOM     13  O   UNL     1      47.240  15.328  16.516  0.00  0.00    -0.169 OA
ATOM     14  C   UNL     1      45.114  19.263  18.322  0.00  0.00    -0.071 A 
ATOM     15  C   UNL     1      45.441  15.761  19.527  0.00  0.00    +0.327 A 
ATOM     18  C   UNL     1      44.387  19.807  19.340  0.00  0.00    +0.232 A 
ENDROOT
BRANCH   3   2
ATOM      1  C   UNL     1      42.076  18.938  21.840  0.00  0.00    +0.269 C 
ATOM      2  O   UNL     1      43.280  19.601  21.448  0.00  0.00    -0.285 OA
ENDBRANCH   3   2
BRANCH  15  16
ATOM     16  O   UNL     1      45.084  14.977  20.574  0.00  0.00    -0.318 OA
ATOM     17  C   UNL     1      46.074  14.747  21.579  0.00  0.00    +0.292 C 
ENDBRANCH  15  16
BRANCH  18  19
ATOM     19  O   UNL     1      44.036  21.119  19.288  0.00  0.00    -0.273 OA
ATOM     20  C   UNL     1      45.078  22.076  19.496  0.00  0.00    +0.276 C 
ENDBRANCH  18  19
TORSDOF 3
ENDMDL
MODEL 4
REMARK VINA RESULT:      -4.6      4.662      6.616
REMARK  Name = ZINC00900216
REMARK  6 active torsions:
REMARK  status: ('A' for Active; 'I' for Inactive)
REMARK    1  A    between atoms: C1_1  and  O1_2
REMARK    2  A    between atoms: O1_2  and  C2_3
REMARK    3  A    between atoms: C7_8  and  O2_9
REMARK    4  A    between atoms: O2_9  and  C8_10
REMARK    5  A    between atoms: C11_14  and  O3_15
REMARK    6  A    between atoms: O3_15  and  C12_16
REMARK                            x       y       z     vdW  Elec       q    Type
REMARK                         _______ _______ _______ _____ _____    ______ ____
ROOT
ATOM      3  C   UNL     1      44.751  19.402  19.202  0.00  0.00    +0.134 A 
ATOM      4  C   UNL     1      45.523  18.624  18.389  0.00  0.00    +0.037 A 
ATOM      5  C   UNL     1      45.630  17.246  18.643  0.00  0.00    -0.116 A 
ATOM      6  C   UNL     1      44.937  16.675  19.741  0.00  0.00    +0.226 A 
ATOM      7  N   UNL     1      45.028  15.365  19.995  0.00  0.00    -0.463 N 
ATOM      8  H   UNL     1      44.546  14.997  20.752  0.00  0.00    +0.447 HD
ATOM      9  C   UNL     1      45.758  14.559  19.246  0.00  0.00    +0.335 A 
ATOM     10  C   UNL     1      46.474  15.059  18.138  0.00  0.00    -0.197 A 
ATOM     11  C   UNL     1      47.158  13.899  17.551  0.00  0.00    +0.036 A 
ATOM     12  C   UNL     1      46.821  12.848  18.307  0.00  0.00    +0.281 A 
ATOM     13  O   UNL     1      46.000  13.232  19.302  0.00  0.00    -0.169 OA
ATOM     14  C   UNL     1      44.151  17.506  20.558  0.00  0.00    -0.071 A 
ATOM     15  C   UNL     1      46.418  16.414  17.822  0.00  0.00    +0.327 A 
ATOM     18  C   UNL     1      44.069  18.841  20.291  0.00  0.00    +0.232 A 
ENDROOT
BRANCH   3   2
ATOM      1  C   UNL     1      45.837  21.516  19.097  0.00  0.00    +0.269 C 
ATOM      2  O   UNL     1      44.648  20.736  18.956  0.00  0.00    -0.285 OA
ENDBRANCH   3   2
BRANCH  15  16
ATOM     16  O   UNL     1      47.097  16.917  16.761  0.00  0.00    -0.318 OA
ATOM     17  C   UNL     1      48.468  17.260  16.973  0.00  0.00    +0.292 C 
ENDBRANCH  15  16
BRANCH  18  19
ATOM     19  O   UNL     1      43.311  19.639  21.089  0.00  0.00    -0.273 OA
ATOM     20  C   UNL     1      42.676  19.020  22.210  0.00  0.00    +0.276 C 
ENDBRANCH  18  19
TORSDOF 3
ENDMDL
MODEL 5
REMARK VINA RESULT:      -4.6      4.020      6.252
REMARK  Name = ZINC00900216
REMARK  6 active torsions:
REMARK  status: ('A' for Active; 'I' for Inactive)
REMARK    1  A    between atoms: C1_1  and  O1_2
REMARK    2  A    between atoms: O1_2  and  C2_3
REMARK    3  A    between atoms: C7_8  and  O2_9
REMARK    4  A    between atoms: O2_9  and  C8_10
REMARK    5  A    between atoms: C11_14  and  O3_15
REMARK    6  A    between atoms: O3_15  and  C12_16
REMARK                            x       y       z     vdW  Elec       q    Type
REMARK                         _______ _______ _______ _____ _____    ______ ____
ROOT
ATOM      3  C   UNL     1      45.380  15.136  19.645  0.00  0.00    +0.134 A 
ATOM      4  C   UNL     1      44.859  16.189  20.340  0.00  0.00    +0.037 A 
ATOM      5  C   UNL     1      45.058  17.498  19.871  0.00  0.00    -0.116 A 
ATOM      6  C   UNL     1      45.798  17.716  18.681  0.00  0.00    +0.226 A 
ATOM      7  N   UNL     1      45.994  18.956  18.220  0.00  0.00    -0.463 N 
ATOM      8  H   UNL     1      46.504  19.081  17.404  0.00  0.00    +0.447 HD
ATOM      9  C   UNL     1      45.516  20.016  18.846  0.00  0.00    +0.335 A 
ATOM     10  C   UNL     1      44.772  19.873  20.037  0.00  0.00    -0.197 A 
ATOM     11  C   UNL     1      44.409  21.237  20.443  0.00  0.00    +0.036 A 
ATOM     12  C   UNL     1      44.932  22.052  19.520  0.00  0.00    +0.281 A 
ATOM     13  O   UNL     1      45.582  21.339  18.582  0.00  0.00    -0.169 OA
ATOM     14  C   UNL     1      46.320  16.609  17.989  0.00  0.00    -0.071 A 
ATOM     15  C   UNL     1      44.533  18.608  20.564  0.00  0.00    +0.327 A 
ATOM     18  C   UNL     1      46.116  15.349  18.471  0.00  0.00    +0.232 A 
ENDROOT
BRANCH   3   2
ATOM      1  C   UNL     1      45.415  13.637  21.492  0.00  0.00    +0.269 C 
ATOM      2  O   UNL     1      45.188  13.869  20.100  0.00  0.00    -0.285 OA
ENDBRANCH   3   2
BRANCH  15  16
ATOM     16  O   UNL     1      43.819  18.446  21.706  0.00  0.00    -0.318 OA
ATOM     17  C   UNL     1      42.396  18.499  21.593  0.00  0.00    +0.292 C 
ENDBRANCH  15  16
BRANCH  18  19
ATOM     19  O   UNL     1      46.628  14.284  17.800  0.00  0.00    -0.273 OA
ATOM     20  C   UNL     1      46.928  14.473  16.415  0.00  0.00    +0.276 C 
ENDBRANCH  18  19
TORSDOF 3
ENDMDL
MODEL 6
REMARK VINA RESULT:      -4.6      3.710      5.996
REMARK  Name = ZINC00900216
REMARK  6 active torsions:
REMARK  status: ('A' for Active; 'I' for Inactive)
REMARK    1  A    between atoms: C1_1  and  O1_2
REMARK    2  A    between atoms: O1_2  and  C2_3
REMARK    3  A    between atoms: C7_8  and  O2_9
REMARK    4  A    between atoms: O2_9  and  C8_10
REMARK    5  A    between atoms: C11_14  and  O3_15
REMARK    6  A    between atoms: O3_15  and  C12_16
REMARK                            x       y       z     vdW  Elec       q    Type
REMARK                         _______ _______ _______ _____ _____    ______ ____
ROOT
ATOM      3  C   UNL     1      44.241  20.260  18.894  0.00  0.00    +0.134 A 
ATOM      4  C   UNL     1      44.904  19.178  18.393  0.00  0.00    +0.037 A 
ATOM      5  C   UNL     1      46.306  19.124  18.473  0.00  0.00    -0.116 A 
ATOM      6  C   UNL     1      47.020  20.192  19.072  0.00  0.00    +0.226 A 
ATOM      7  N   UNL     1      48.354  20.155  19.157  0.00  0.00    -0.463 N 
ATOM      8  H   UNL     1      48.821  20.898  19.571  0.00  0.00    +0.447 HD
ATOM      9  C   UNL     1      49.054  19.136  18.691  0.00  0.00    +0.335 A 
ATOM     10  C   UNL     1      48.409  18.039  18.082  0.00  0.00    -0.197 A 
ATOM     11  C   UNL     1      49.481  17.114  17.695  0.00  0.00    +0.036 A 
ATOM     12  C   UNL     1      50.627  17.691  18.078  0.00  0.00    +0.281 A 
ATOM     13  O   UNL     1      50.379  18.877  18.663  0.00  0.00    -0.169 OA
ATOM     14  C   UNL     1      46.305  21.292  19.578  0.00  0.00    -0.071 A 
ATOM     15  C   UNL     1      47.022  18.020  17.966  0.00  0.00    +0.327 A 
ATOM     18  C   UNL     1      44.945  21.321  19.482  0.00  0.00    +0.232 A 
ENDROOT
BRANCH   3   2
ATOM      1  C   UNL     1      42.149  19.518  19.749  0.00  0.00    +0.269 C 
ATOM      2  O   UNL     1      42.884  20.312  18.816  0.00  0.00    -0.285 OA
ENDBRANCH   3   2
BRANCH  15  16
ATOM     16  O   UNL     1      46.380  16.976  17.386  0.00  0.00    -0.318 OA
ATOM     17  C   UNL     1      46.218  15.795  18.174  0.00  0.00    +0.292 C 
ENDBRANCH  15  16
BRANCH  18  19
ATOM     19  O   UNL     1      44.260  22.389  19.969  0.00  0.00    -0.273 OA
ATOM     20  C   UNL     1      44.712  22.937  21.210  0.00  0.00    +0.276 C 
ENDBRANCH  18  19
TORSDOF 3
ENDMDL
MODEL 7
REMARK VINA RESULT:      -4.5      3.411      5.039
REMARK  Name = ZINC00900216
REMARK  6 active torsions:
REMARK  status: ('A' for Active; 'I' for Inactive)
REMARK    1  A    between atoms: C1_1  and  O1_2
REMARK    2  A    between atoms: O1_2  and  C2_3
REMARK    3  A    between atoms: C7_8  and  O2_9
REMARK    4  A    between atoms: O2_9  and  C8_10
REMARK    5  A    between atoms: C11_14  and  O3_15
REMARK    6  A    between atoms: O3_15  and  C12_16
REMARK                            x       y       z     vdW  Elec       q    Type
REMARK                         _______ _______ _______ _____ _____    ______ ____
ROOT
ATOM      3  C   UNL     1      49.088  19.225  18.885  0.00  0.00    +0.134 A 
ATOM      4  C   UNL     1      48.256  20.184  19.385  0.00  0.00    +0.037 A 
ATOM      5  C   UNL     1      46.876  20.108  19.133  0.00  0.00    -0.116 A 
ATOM      6  C   UNL     1      46.357  19.038  18.361  0.00  0.00    +0.226 A 
ATOM      7  N   UNL     1      45.046  18.951  18.113  0.00  0.00    -0.463 N 
ATOM      8  H   UNL     1      44.715  18.210  17.582  0.00  0.00    +0.447 HD
ATOM      9  C   UNL     1      44.190  19.847  18.569  0.00  0.00    +0.335 A 
ATOM     10  C   UNL     1      44.636  20.939  19.344  0.00  0.00    -0.197 A 
ATOM     11  C   UNL     1      43.431  21.712  19.671  0.00  0.00    +0.036 A 
ATOM     12  C   UNL     1      42.408  21.064  19.100  0.00  0.00    +0.281 A 
ATOM     13  O   UNL     1      42.850  19.970  18.454  0.00  0.00    -0.169 OA
ATOM     14  C   UNL     1      47.242  18.067  17.860  0.00  0.00    -0.071 A 
ATOM     15  C   UNL     1      45.989  21.083  19.636  0.00  0.00    +0.327 A 
ATOM     18  C   UNL     1      48.579  18.168  18.116  0.00  0.00    +0.232 A 
ENDROOT
BRANCH   3   2
ATOM      1  C   UNL     1      51.029  20.591  19.042  0.00  0.00    +0.269 C 
ATOM      2  O   UNL     1      50.423  19.299  19.129  0.00  0.00    -0.285 OA
ENDBRANCH   3   2
BRANCH  15  16
ATOM     16  O   UNL     1      46.441  22.123  20.380  0.00  0.00    -0.318 OA
ATOM     17  C   UNL     1      46.311  22.010  21.798  0.00  0.00    +0.292 C 
ENDBRANCH  15  16
BRANCH  18  19
ATOM     19  O   UNL     1      49.429  17.229  17.625  0.00  0.00    -0.273 OA
ATOM     20  C   UNL     1      48.877  15.941  17.339  0.00  0.00    +0.276 C 
ENDBRANCH  18  19
TORSDOF 3
ENDMDL
MODEL 8
REMARK VINA RESULT:      -4.5     20.704     22.741
REMARK  Name = ZINC00900216
REMARK  6 active torsions:
REMARK  status: ('A' for Active; 'I' for Inactive)
REMARK    1  A    between atoms: C1_1  and  O1_2
REMARK    2  A    between atoms: O1_2  and  C2_3
REMARK    3  A    between atoms: C7_8  and  O2_9
REMARK    4  A    between atoms: O2_9  and  C8_10
REMARK    5  A    between atoms: C11_14  and  O3_15
REMARK    6  A    between atoms: O3_15  and  C12_16
REMARK                            x       y       z     vdW  Elec       q    Type
REMARK                         _______ _______ _______ _____ _____    ______ ____
ROOT
ATOM      3  C   UNL     1      52.391  32.913   4.983  0.00  0.00    +0.134 A 
ATOM      4  C   UNL     1      53.271  32.399   4.076  0.00  0.00    +0.037 A 
ATOM      5  C   UNL     1      54.653  32.538   4.292  0.00  0.00    -0.116 A 
ATOM      6  C   UNL     1      55.122  33.211   5.449  0.00  0.00    +0.226 A 
ATOM      7  N   UNL     1      56.433  33.351   5.669  0.00  0.00    -0.463 N 
ATOM      8  H   UNL     1      56.731  33.815   6.467  0.00  0.00    +0.447 HD
ATOM      9  C   UNL     1      57.336  32.876   4.830  0.00  0.00    +0.335 A 
ATOM     10  C   UNL     1      56.940  32.195   3.659  0.00  0.00    -0.197 A 
ATOM     11  C   UNL     1      58.187  31.816   2.981  0.00  0.00    +0.036 A 
ATOM     12  C   UNL     1      59.182  32.270   3.752  0.00  0.00    +0.281 A 
ATOM     13  O   UNL     1      58.686  32.892   4.837  0.00  0.00    -0.169 OA
ATOM     14  C   UNL     1      54.188  33.729   6.363  0.00  0.00    -0.071 A 
ATOM     15  C   UNL     1      55.589  32.018   3.375  0.00  0.00    +0.327 A 
ATOM     18  C   UNL     1      52.852  33.584   6.126  0.00  0.00    +0.232 A 
ENDROOT
BRANCH   3   2
ATOM      1  C   UNL     1      50.452  33.666   3.828  0.00  0.00    +0.269 C 
ATOM      2  O   UNL     1      51.054  32.779   4.774  0.00  0.00    -0.285 OA
ENDBRANCH   3   2
BRANCH  15  16
ATOM     16  O   UNL     1      55.186  31.367   2.256  0.00  0.00    -0.318 OA
ATOM     17  C   UNL     1      55.121  32.130   1.050  0.00  0.00    +0.292 C 
ENDBRANCH  15  16
BRANCH  18  19
ATOM     19  O   UNL     1      51.954  34.091   7.011  0.00  0.00    -0.273 OA
ATOM     20  C   UNL     1      52.215  35.401   7.519  0.00  0.00    +0.276 C 
ENDBRANCH  18  19
TORSDOF 3
ENDMDL
MODEL 9
REMARK VINA RESULT:      -4.4     20.554     22.373
REMARK  Name = ZINC00900216
REMARK  6 active torsions:
REMARK  status: ('A' for Active; 'I' for Inactive)
REMARK    1  A    between atoms: C1_1  and  O1_2
REMARK    2  A    between atoms: O1_2  and  C2_3
REMARK    3  A    between atoms: C7_8  and  O2_9
REMARK    4  A    between atoms: O2_9  and  C8_10
REMARK    5  A    between atoms: C11_14  and  O3_15
REMARK    6  A    between atoms: O3_15  and  C12_16
REMARK                            x       y       z     vdW  Elec       q    Type
REMARK                         _______ _______ _______ _____ _____    ______ ____
ROOT
ATOM      3  C   UNL     1      57.148  32.517   3.623  0.00  0.00    +0.134 A 
ATOM      4  C   UNL     1      55.818  32.248   3.484  0.00  0.00    +0.037 A 
ATOM      5  C   UNL     1      54.910  32.713   4.450  0.00  0.00    -0.116 A 
ATOM      6  C   UNL     1      55.381  33.457   5.561  0.00  0.00    +0.226 A 
ATOM      7  N   UNL     1      54.529  33.907   6.488  0.00  0.00    -0.463 N 
ATOM      8  H   UNL     1      54.875  34.413   7.240  0.00  0.00    +0.447 HD
ATOM      9  C   UNL     1      53.231  33.680   6.411  0.00  0.00    +0.335 A 
ATOM     10  C   UNL     1      52.692  32.946   5.333  0.00  0.00    -0.197 A 
ATOM     11  C   UNL     1      51.244  32.894   5.573  0.00  0.00    +0.036 A 
ATOM     12  C   UNL     1      51.032  33.563   6.713  0.00  0.00    +0.281 A 
ATOM     13  O   UNL     1      52.196  34.025   7.207  0.00  0.00    -0.169 OA
ATOM     14  C   UNL     1      56.758  33.717   5.674  0.00  0.00    -0.071 A 
ATOM     15  C   UNL     1      53.529  32.452   4.336  0.00  0.00    +0.327 A 
ATOM     18  C   UNL     1      57.618  33.248   4.723  0.00  0.00    +0.232 A 
ENDROOT
BRANCH   3   2
ATOM      1  C   UNL     1      58.161  30.651   2.551  0.00  0.00    +0.269 C 
ATOM      2  O   UNL     1      58.027  32.067   2.687  0.00  0.00    -0.285 OA
ENDBRANCH   3   2
BRANCH  15  16
ATOM     16  O   UNL     1      53.033  31.746   3.290  0.00  0.00    -0.318 OA
ATOM     17  C   UNL     1      52.444  32.493   2.224  0.00  0.00    +0.292 C 
ENDBRANCH  15  16
BRANCH  18  19
ATOM     19  O   UNL     1      58.949  33.499   4.841  0.00  0.00    -0.273 OA
ATOM     20  C   UNL     1      59.338  34.863   5.011  0.00  0.00    +0.276 C 
ENDBRANCH  18  19
TORSDOF 3
ENDMDL
