MODEL 1
REMARK VINA RESULT:      -5.8      0.000      0.000
REMARK  Name = ZINC95486157
REMARK  7 active torsions:
REMARK  status: ('A' for Active; 'I' for Inactive)
REMARK    1  A    between atoms: C1_1  and  C2_2
REMARK    2  A    between atoms: C2_2  and  C5_6
REMARK    3  A    between atoms: C3_3  and  C4_4
REMARK    4  A    between atoms: C4_4  and  O1_5
REMARK    5  A    between atoms: C8_11  and  C15_21
REMARK    6  A    between atoms: C12_16  and  C13_17
REMARK    7  A    between atoms: C12_16  and  C14_18
REMARK                            x       y       z     vdW  Elec       q    Type
REMARK                         _______ _______ _______ _____ _____    ______ ____
ROOT
ATOM      3  C   UNL     1      43.488  19.764  19.954  0.00  0.00    +0.182 C 
ATOM      4  C   UNL     1      44.265  20.133  18.766  0.00  0.00    +0.028 C 
ATOM      5  C   UNL     1      45.781  20.313  19.011  0.00  0.00    -0.011 C 
ATOM      6  C   UNL     1      46.013  21.203  20.193  0.00  0.00    +0.111 C 
ATOM      7  C   UNL     1      45.464  22.667  19.877  0.00  0.00    +0.053 C 
ATOM      8  O   UNL     1      45.252  20.739  21.300  0.00  0.00    -0.187 OA
ATOM      9  C   UNL     1      47.407  21.282  20.602  0.00  0.00    +0.079 C 
ATOM     10  C   UNL     1      48.378  20.530  20.138  0.00  0.00    -0.031 C 
ATOM     11  C   UNL     1      48.080  19.506  19.184  0.00  0.00    +0.367 C 
ATOM     12  O   UNL     1      48.920  19.015  18.419  0.00  0.00    -0.448 OA
ATOM     13  C   UNL     1      46.575  19.078  18.976  0.00  0.00    -0.080 C 
ATOM     14  C   UNL     1      46.423  18.275  17.707  0.00  0.00    +0.072 C 
ATOM     15  C   UNL     1      46.239  18.219  20.230  0.00  0.00    +0.049 C 
ATOM     16  O   UNL     1      43.749  20.639  21.026  0.00  0.00    -0.175 OA
ENDROOT
BRANCH   3   2
ATOM      1  C   UNL     1      40.992  19.210  20.504  0.00  0.00    +0.090 C 
ATOM      2  C   UNL     1      42.018  19.858  19.610  0.00  0.00    -0.123 C 
ATOM     17  C   UNL     1      41.637  20.501  18.534  0.00  0.00    -0.011 C 
BRANCH  17  18
ATOM     18  C   UNL     1      40.170  20.699  18.256  0.00  0.00    +0.221 C 
BRANCH  18  19
ATOM     19  O   UNL     1      39.879  22.098  18.202  0.00  0.00    -0.570 OA
ATOM     20  H   UNL     1      39.316  22.354  17.459  0.00  0.00    +0.384 HD
ENDBRANCH  18  19
ENDBRANCH  17  18
ENDBRANCH   3   2
TORSDOF 3
ENDMDL
MODEL 2
REMARK VINA RESULT:      -5.5      1.833      6.148
REMARK  Name = ZINC95486157
REMARK  7 active torsions:
REMARK  status: ('A' for Active; 'I' for Inactive)
REMARK    1  A    between atoms: C1_1  and  C2_2
REMARK    2  A    between atoms: C2_2  and  C5_6
REMARK    3  A    between atoms: C3_3  and  C4_4
REMARK    4  A    between atoms: C4_4  and  O1_5
REMARK    5  A    between atoms: C8_11  and  C15_21
REMARK    6  A    between atoms: C12_16  and  C13_17
REMARK    7  A    between atoms: C12_16  and  C14_18
REMARK                            x       y       z     vdW  Elec       q    Type
REMARK                         _______ _______ _______ _____ _____    ______ ____
ROOT
ATOM      3  C   UNL     1      47.698  20.572  20.195  0.00  0.00    +0.182 C 
ATOM      4  C   UNL     1      46.986  21.089  19.022  0.00  0.00    +0.028 C 
ATOM      5  C   UNL     1      45.473  20.770  18.986  0.00  0.00    -0.011 C 
ATOM      6  C   UNL     1      45.246  19.312  19.245  0.00  0.00    +0.111 C 
ATOM      7  C   UNL     1      45.883  18.452  18.063  0.00  0.00    +0.053 C 
ATOM      8  O   UNL     1      45.940  18.920  20.422  0.00  0.00    -0.187 OA
ATOM      9  C   UNL     1      43.844  18.958  19.406  0.00  0.00    +0.079 C 
ATOM     10  C   UNL     1      42.852  19.812  19.508  0.00  0.00    -0.031 C 
ATOM     11  C   UNL     1      43.130  21.216  19.511  0.00  0.00    +0.367 C 
ATOM     12  O   UNL     1      42.294  22.082  19.224  0.00  0.00    -0.448 OA
ATOM     13  C   UNL     1      44.617  21.694  19.740  0.00  0.00    -0.080 C 
ATOM     14  C   UNL     1      44.773  23.144  19.353  0.00  0.00    +0.072 C 
ATOM     15  C   UNL     1      44.860  21.487  21.264  0.00  0.00    +0.049 C 
ATOM     16  O   UNL     1      47.444  19.200  20.382  0.00  0.00    -0.175 OA
ENDROOT
BRANCH   3   2
ATOM      1  C   UNL     1      50.121  20.812  21.149  0.00  0.00    +0.090 C 
ATOM      2  C   UNL     1      49.182  20.756  19.971  0.00  0.00    -0.123 C 
ATOM     17  C   UNL     1      49.652  20.868  18.753  0.00  0.00    -0.011 C 
BRANCH  17  18
ATOM     18  C   UNL     1      51.139  20.928  18.522  0.00  0.00    +0.221 C 
BRANCH  18  19
ATOM     19  O   UNL     1      51.398  21.439  17.212  0.00  0.00    -0.570 OA
ATOM     20  H   UNL     1      52.338  21.485  16.987  0.00  0.00    +0.384 HD
ENDBRANCH  18  19
ENDBRANCH  17  18
ENDBRANCH   3   2
TORSDOF 3
ENDMDL
MODEL 3
REMARK VINA RESULT:      -5.3      1.705      2.756
REMARK  Name = ZINC95486157
REMARK  7 active torsions:
REMARK  status: ('A' for Active; 'I' for Inactive)
REMARK    1  A    between atoms: C1_1  and  C2_2
REMARK    2  A    between atoms: C2_2  and  C5_6
REMARK    3  A    between atoms: C3_3  and  C4_4
REMARK    4  A    between atoms: C4_4  and  O1_5
REMARK    5  A    between atoms: C8_11  and  C15_21
REMARK    6  A    between atoms: C12_16  and  C13_17
REMARK    7  A    between atoms: C12_16  and  C14_18
REMARK                            x       y       z     vdW  Elec       q    Type
REMARK                         _______ _______ _______ _____ _____    ______ ____
ROOT
ATOM      3  C   UNL     1      43.626  19.799  19.617  0.00  0.00    +0.182 C 
ATOM      4  C   UNL     1      43.992  20.400  20.904  0.00  0.00    +0.028 C 
ATOM      5  C   UNL     1      45.456  20.162  21.340  0.00  0.00    -0.011 C 
ATOM      6  C   UNL     1      45.801  18.709  21.225  0.00  0.00    +0.111 C 
ATOM      7  C   UNL     1      44.918  17.866  22.250  0.00  0.00    +0.053 C 
ATOM      8  O   UNL     1      45.449  18.233  19.933  0.00  0.00    -0.187 OA
ATOM      9  C   UNL     1      47.211  18.423  21.445  0.00  0.00    +0.079 C 
ATOM     10  C   UNL     1      48.160  19.324  21.553  0.00  0.00    -0.031 C 
ATOM     11  C   UNL     1      47.836  20.710  21.405  0.00  0.00    +0.367 C 
ATOM     12  O   UNL     1      48.535  21.629  21.849  0.00  0.00    -0.448 OA
ATOM     13  C   UNL     1      46.439  21.098  20.781  0.00  0.00    -0.080 C 
ATOM     14  C   UNL     1      46.131  22.553  21.037  0.00  0.00    +0.072 C 
ATOM     15  C   UNL     1      46.603  20.817  19.258  0.00  0.00    +0.049 C 
ATOM     16  O   UNL     1      43.974  18.435  19.575  0.00  0.00    -0.175 OA
ENDROOT
BRANCH   3   2
ATOM      1  C   UNL     1      41.204  19.275  20.453  0.00  0.00    +0.090 C 
ATOM      2  C   UNL     1      42.128  19.913  19.446  0.00  0.00    -0.123 C 
ATOM     17  C   UNL     1      41.632  20.565  18.424  0.00  0.00    -0.011 C 
BRANCH  17  18
ATOM     18  C   UNL     1      40.146  20.784  18.319  0.00  0.00    +0.221 C 
BRANCH  18  19
ATOM     19  O   UNL     1      39.874  22.185  18.243  0.00  0.00    -0.570 OA
ATOM     20  H   UNL     1      39.254  22.502  18.915  0.00  0.00    +0.384 HD
ENDBRANCH  18  19
ENDBRANCH  17  18
ENDBRANCH   3   2
TORSDOF 3
ENDMDL
MODEL 4
REMARK VINA RESULT:      -5.1      2.923      5.107
REMARK  Name = ZINC95486157
REMARK  7 active torsions:
REMARK  status: ('A' for Active; 'I' for Inactive)
REMARK    1  A    between atoms: C1_1  and  C2_2
REMARK    2  A    between atoms: C2_2  and  C5_6
REMARK    3  A    between atoms: C3_3  and  C4_4
REMARK    4  A    between atoms: C4_4  and  O1_5
REMARK    5  A    between atoms: C8_11  and  C15_21
REMARK    6  A    between atoms: C12_16  and  C13_17
REMARK    7  A    between atoms: C12_16  and  C14_18
REMARK                            x       y       z     vdW  Elec       q    Type
REMARK                         _______ _______ _______ _____ _____    ______ ____
ROOT
ATOM      3  C   UNL     1      44.868  17.327  19.904  0.00  0.00    +0.182 C 
ATOM      4  C   UNL     1      45.593  18.136  20.890  0.00  0.00    +0.028 C 
ATOM      5  C   UNL     1      45.625  19.653  20.588  0.00  0.00    -0.011 C 
ATOM      6  C   UNL     1      46.049  19.890  19.171  0.00  0.00    +0.111 C 
ATOM      7  C   UNL     1      47.551  19.393  18.972  0.00  0.00    +0.053 C 
ATOM      8  O   UNL     1      45.262  19.095  18.295  0.00  0.00    -0.187 OA
ATOM      9  C   UNL     1      45.935  21.278  18.750  0.00  0.00    +0.079 C 
ATOM     10  C   UNL     1      45.352  22.234  19.437  0.00  0.00    -0.031 C 
ATOM     11  C   UNL     1      44.726  21.922  20.686  0.00  0.00    +0.367 C 
ATOM     12  O   UNL     1      44.497  22.760  21.567  0.00  0.00    -0.448 OA
ATOM     13  C   UNL     1      44.449  20.409  21.038  0.00  0.00    -0.080 C 
ATOM     14  C   UNL     1      44.133  20.255  22.505  0.00  0.00    +0.072 C 
ATOM     15  C   UNL     1      43.226  20.023  20.154  0.00  0.00    +0.049 C 
ATOM     16  O   UNL     1      45.315  17.595  18.597  0.00  0.00    -0.175 OA
ENDROOT
BRANCH   3   2
ATOM      1  C   UNL     1      45.008  15.358  21.619  0.00  0.00    +0.090 C 
ATOM      2  C   UNL     1      45.126  15.867  20.206  0.00  0.00    -0.123 C 
ATOM     17  C   UNL     1      45.454  15.047  19.238  0.00  0.00    -0.011 C 
BRANCH  17  18
ATOM     18  C   UNL     1      45.591  13.572  19.516  0.00  0.00    +0.221 C 
BRANCH  18  19
ATOM     19  O   UNL     1      44.389  12.901  19.134  0.00  0.00    -0.570 OA
ATOM     20  H   UNL     1      43.606  13.469  19.125  0.00  0.00    +0.384 HD
ENDBRANCH  18  19
ENDBRANCH  17  18
ENDBRANCH   3   2
TORSDOF 3
ENDMDL
MODEL 5
REMARK VINA RESULT:      -5.1      2.173      5.892
REMARK  Name = ZINC95486157
REMARK  7 active torsions:
REMARK  status: ('A' for Active; 'I' for Inactive)
REMARK    1  A    between atoms: C1_1  and  C2_2
REMARK    2  A    between atoms: C2_2  and  C5_6
REMARK    3  A    between atoms: C3_3  and  C4_4
REMARK    4  A    between atoms: C4_4  and  O1_5
REMARK    5  A    between atoms: C8_11  and  C15_21
REMARK    6  A    between atoms: C12_16  and  C13_17
REMARK    7  A    between atoms: C12_16  and  C14_18
REMARK                            x       y       z     vdW  Elec       q    Type
REMARK                         _______ _______ _______ _____ _____    ______ ____
ROOT
ATOM      3  C   UNL     1      47.209  20.101  19.672  0.00  0.00    +0.182 C 
ATOM      4  C   UNL     1      46.457  20.389  20.898  0.00  0.00    +0.028 C 
ATOM      5  C   UNL     1      44.926  20.210  20.780  0.00  0.00    -0.011 C 
ATOM      6  C   UNL     1      44.413  20.923  19.566  0.00  0.00    +0.111 C 
ATOM      7  C   UNL     1      44.638  22.494  19.734  0.00  0.00    +0.053 C 
ATOM      8  O   UNL     1      45.177  20.546  18.429  0.00  0.00    -0.187 OA
ATOM      9  C   UNL     1      43.011  20.659  19.280  0.00  0.00    +0.079 C 
ATOM     10  C   UNL     1      42.272  19.753  19.879  0.00  0.00    -0.031 C 
ATOM     11  C   UNL     1      42.862  18.905  20.868  0.00  0.00    +0.367 C 
ATOM     12  O   UNL     1      42.214  18.308  21.736  0.00  0.00    -0.448 OA
ATOM     13  C   UNL     1      44.436  18.838  20.968  0.00  0.00    -0.080 C 
ATOM     14  C   UNL     1      44.858  18.199  22.268  0.00  0.00    +0.072 C 
ATOM     15  C   UNL     1      44.866  17.971  19.748  0.00  0.00    +0.049 C 
ATOM     16  O   UNL     1      46.679  20.803  18.573  0.00  0.00    -0.175 OA
ENDROOT
BRANCH   3   2
ATOM      1  C   UNL     1      49.174  20.751  21.271  0.00  0.00    +0.090 C 
ATOM      2  C   UNL     1      48.640  20.545  19.876  0.00  0.00    -0.123 C 
ATOM     17  C   UNL     1      49.415  20.753  18.840  0.00  0.00    -0.011 C 
BRANCH  17  18
ATOM     18  C   UNL     1      50.873  21.076  19.044  0.00  0.00    +0.221 C 
BRANCH  18  19
ATOM     19  O   UNL     1      51.472  21.390  17.785  0.00  0.00    -0.570 OA
ATOM     20  H   UNL     1      52.087  20.717  17.463  0.00  0.00    +0.384 HD
ENDBRANCH  18  19
ENDBRANCH  17  18
ENDBRANCH   3   2
TORSDOF 3
ENDMDL
MODEL 6
REMARK VINA RESULT:      -4.7     20.861     22.051
REMARK  Name = ZINC95486157
REMARK  7 active torsions:
REMARK  status: ('A' for Active; 'I' for Inactive)
REMARK    1  A    between atoms: C1_1  and  C2_2
REMARK    2  A    between atoms: C2_2  and  C5_6
REMARK    3  A    between atoms: C3_3  and  C4_4
REMARK    4  A    between atoms: C4_4  and  O1_5
REMARK    5  A    between atoms: C8_11  and  C15_21
REMARK    6  A    between atoms: C12_16  and  C13_17
REMARK    7  A    between atoms: C12_16  and  C14_18
REMARK                            x       y       z     vdW  Elec       q    Type
REMARK                         _______ _______ _______ _____ _____    ______ ____
ROOT
ATOM      3  C   UNL     1      51.599  33.545   3.539  0.00  0.00    +0.182 C 
ATOM      4  C   UNL     1      52.467  34.715   3.712  0.00  0.00    +0.028 C 
ATOM      5  C   UNL     1      53.766  34.448   4.507  0.00  0.00    -0.011 C 
ATOM      6  C   UNL     1      53.455  33.724   5.781  0.00  0.00    +0.111 C 
ATOM      7  C   UNL     1      52.573  34.657   6.726  0.00  0.00    +0.053 C 
ATOM      8  O   UNL     1      52.648  32.587   5.502  0.00  0.00    -0.187 OA
ATOM      9  C   UNL     1      54.636  33.276   6.503  0.00  0.00    +0.079 C 
ATOM     10  C   UNL     1      55.866  33.310   6.043  0.00  0.00    -0.031 C 
ATOM     11  C   UNL     1      56.107  33.777   4.712  0.00  0.00    +0.367 C 
ATOM     12  O   UNL     1      57.200  34.203   4.321  0.00  0.00    -0.448 OA
ATOM     13  C   UNL     1      54.884  33.908   3.722  0.00  0.00    -0.080 C 
ATOM     14  C   UNL     1      55.261  34.741   2.521  0.00  0.00    +0.072 C 
ATOM     15  C   UNL     1      54.558  32.442   3.312  0.00  0.00    +0.049 C 
ATOM     16  O   UNL     1      51.344  32.913   4.771  0.00  0.00    -0.175 OA
ENDROOT
BRANCH   3   2
ATOM      1  C   UNL     1      50.062  33.987   1.470  0.00  0.00    +0.090 C 
ATOM      2  C   UNL     1      50.281  34.012   2.962  0.00  0.00    -0.123 C 
ATOM     17  C   UNL     1      49.331  34.439   3.757  0.00  0.00    -0.011 C 
BRANCH  17  18
ATOM     18  C   UNL     1      47.978  34.788   3.194  0.00  0.00    +0.221 C 
BRANCH  18  19
ATOM     19  O   UNL     1      47.075  35.073   4.265  0.00  0.00    -0.570 OA
ATOM     20  H   UNL     1      47.198  34.511   5.042  0.00  0.00    +0.384 HD
ENDBRANCH  18  19
ENDBRANCH  17  18
ENDBRANCH   3   2
TORSDOF 3
ENDMDL
MODEL 7
REMARK VINA RESULT:      -4.7      2.801      3.929
REMARK  Name = ZINC95486157
REMARK  7 active torsions:
REMARK  status: ('A' for Active; 'I' for Inactive)
REMARK    1  A    between atoms: C1_1  and  C2_2
REMARK    2  A    between atoms: C2_2  and  C5_6
REMARK    3  A    between atoms: C3_3  and  C4_4
REMARK    4  A    between atoms: C4_4  and  O1_5
REMARK    5  A    between atoms: C8_11  and  C15_21
REMARK    6  A    between atoms: C12_16  and  C13_17
REMARK    7  A    between atoms: C12_16  and  C14_18
REMARK                            x       y       z     vdW  Elec       q    Type
REMARK                         _______ _______ _______ _____ _____    ______ ____
ROOT
ATOM      3  C   UNL     1      47.016  20.679  20.325  0.00  0.00    +0.182 C 
ATOM      4  C   UNL     1      47.127  20.328  18.905  0.00  0.00    +0.028 C 
ATOM      5  C   UNL     1      48.157  19.218  18.588  0.00  0.00    -0.011 C 
ATOM      6  C   UNL     1      49.467  19.523  19.247  0.00  0.00    +0.111 C 
ATOM      7  C   UNL     1      50.083  20.854  18.623  0.00  0.00    +0.053 C 
ATOM      8  O   UNL     1      49.257  19.807  20.624  0.00  0.00    -0.187 OA
ATOM      9  C   UNL     1      50.437  18.443  19.149  0.00  0.00    +0.079 C 
ATOM     10  C   UNL     1      50.184  17.234  18.704  0.00  0.00    -0.031 C 
ATOM     11  C   UNL     1      48.850  16.892  18.314  0.00  0.00    +0.367 C 
ATOM     12  O   UNL     1      48.576  15.957  17.551  0.00  0.00    -0.448 OA
ATOM     13  C   UNL     1      47.667  17.843  18.746  0.00  0.00    -0.080 C 
ATOM     14  C   UNL     1      46.420  17.530  17.955  0.00  0.00    +0.072 C 
ATOM     15  C   UNL     1      47.464  17.544  20.261  0.00  0.00    +0.049 C 
ATOM     16  O   UNL     1      48.278  20.955  20.882  0.00  0.00    -0.175 OA
ENDROOT
BRANCH   3   2
ATOM      1  C   UNL     1      46.411  22.905  21.557  0.00  0.00    +0.090 C 
ATOM      2  C   UNL     1      46.161  21.921  20.442  0.00  0.00    -0.123 C 
ATOM     17  C   UNL     1      45.201  22.140  19.578  0.00  0.00    -0.011 C 
BRANCH  17  18
ATOM     18  C   UNL     1      44.431  23.434  19.621  0.00  0.00    +0.221 C 
BRANCH  18  19
ATOM     19  O   UNL     1      43.114  23.188  20.121  0.00  0.00    -0.570 OA
ATOM     20  H   UNL     1      42.528  23.956  20.080  0.00  0.00    +0.384 HD
ENDBRANCH  18  19
ENDBRANCH  17  18
ENDBRANCH   3   2
TORSDOF 3
ENDMDL
MODEL 8
REMARK VINA RESULT:      -4.6     21.140     23.080
REMARK  Name = ZINC95486157
REMARK  7 active torsions:
REMARK  status: ('A' for Active; 'I' for Inactive)
REMARK    1  A    between atoms: C1_1  and  C2_2
REMARK    2  A    between atoms: C2_2  and  C5_6
REMARK    3  A    between atoms: C3_3  and  C4_4
REMARK    4  A    between atoms: C4_4  and  O1_5
REMARK    5  A    between atoms: C8_11  and  C15_21
REMARK    6  A    between atoms: C12_16  and  C13_17
REMARK    7  A    between atoms: C12_16  and  C14_18
REMARK                            x       y       z     vdW  Elec       q    Type
REMARK                         _______ _______ _______ _____ _____    ______ ____
ROOT
ATOM      3  C   UNL     1      55.897  32.555   3.296  0.00  0.00    +0.182 C 
ATOM      4  C   UNL     1      54.724  31.737   3.621  0.00  0.00    +0.028 C 
ATOM      5  C   UNL     1      53.447  32.539   3.967  0.00  0.00    -0.011 C 
ATOM      6  C   UNL     1      53.758  33.593   4.985  0.00  0.00    +0.111 C 
ATOM      7  C   UNL     1      54.201  32.902   6.353  0.00  0.00    +0.053 C 
ATOM      8  O   UNL     1      54.880  34.356   4.560  0.00  0.00    -0.187 OA
ATOM      9  C   UNL     1      52.655  34.509   5.235  0.00  0.00    +0.079 C 
ATOM     10  C   UNL     1      51.544  34.568   4.537  0.00  0.00    -0.031 C 
ATOM     11  C   UNL     1      51.380  33.712   3.402  0.00  0.00    +0.367 C 
ATOM     12  O   UNL     1      50.280  33.413   2.921  0.00  0.00    -0.448 OA
ATOM     13  C   UNL     1      52.649  32.979   2.815  0.00  0.00    -0.080 C 
ATOM     14  C   UNL     1      52.235  31.868   1.882  0.00  0.00    +0.072 C 
ATOM     15  C   UNL     1      53.424  34.095   2.054  0.00  0.00    +0.049 C 
ATOM     16  O   UNL     1      56.135  33.522   4.291  0.00  0.00    -0.175 OA
ENDROOT
BRANCH   3   2
ATOM      1  C   UNL     1      57.237  30.671   2.076  0.00  0.00    +0.090 C 
ATOM      2  C   UNL     1      57.103  31.647   3.216  0.00  0.00    -0.123 C 
ATOM     17  C   UNL     1      58.031  31.707   4.140  0.00  0.00    -0.011 C 
BRANCH  17  18
ATOM     18  C   UNL     1      59.289  30.891   3.997  0.00  0.00    +0.221 C 
BRANCH  18  19
ATOM     19  O   UNL     1      59.301  29.856   4.982  0.00  0.00    -0.570 OA
ATOM     20  H   UNL     1      60.179  29.490   5.159  0.00  0.00    +0.384 HD
ENDBRANCH  18  19
ENDBRANCH  17  18
ENDBRANCH   3   2
TORSDOF 3
ENDMDL
MODEL 9
REMARK VINA RESULT:      -4.6      2.057      2.825
REMARK  Name = ZINC95486157
REMARK  7 active torsions:
REMARK  status: ('A' for Active; 'I' for Inactive)
REMARK    1  A    between atoms: C1_1  and  C2_2
REMARK    2  A    between atoms: C2_2  and  C5_6
REMARK    3  A    between atoms: C3_3  and  C4_4
REMARK    4  A    between atoms: C4_4  and  O1_5
REMARK    5  A    between atoms: C8_11  and  C15_21
REMARK    6  A    between atoms: C12_16  and  C13_17
REMARK    7  A    between atoms: C12_16  and  C14_18
REMARK                            x       y       z     vdW  Elec       q    Type
REMARK                         _______ _______ _______ _____ _____    ______ ____
ROOT
ATOM      3  C   UNL     1      44.918  18.575  19.776  0.00  0.00    +0.182 C 
ATOM      4  C   UNL     1      45.450  18.786  18.426  0.00  0.00    +0.028 C 
ATOM      5  C   UNL     1      46.961  18.493  18.270  0.00  0.00    -0.011 C 
ATOM      6  C   UNL     1      47.737  19.186  19.348  0.00  0.00    +0.111 C 
ATOM      7  C   UNL     1      47.597  20.766  19.177  0.00  0.00    +0.053 C 
ATOM      8  O   UNL     1      47.169  18.886  20.616  0.00  0.00    -0.187 OA
ATOM      9  C   UNL     1      49.145  18.822  19.383  0.00  0.00    +0.079 C 
ATOM     10  C   UNL     1      49.696  17.853  18.688  0.00  0.00    -0.031 C 
ATOM     11  C   UNL     1      48.875  17.035  17.848  0.00  0.00    +0.367 C 
ATOM     12  O   UNL     1      49.310  16.377  16.895  0.00  0.00    -0.448 OA
ATOM     13  C   UNL     1      47.309  17.086  18.038  0.00  0.00    -0.080 C 
ATOM     14  C   UNL     1      46.611  16.459  16.855  0.00  0.00    +0.072 C 
ATOM     15  C   UNL     1      47.050  16.274  19.341  0.00  0.00    +0.049 C 
ATOM     16  O   UNL     1      45.688  19.253  20.740  0.00  0.00    -0.175 OA
ENDROOT
BRANCH   3   2
ATOM      1  C   UNL     1      43.048  20.107  18.779  0.00  0.00    +0.090 C 
ATOM      2  C   UNL     1      43.509  19.122  19.823  0.00  0.00    -0.123 C 
ATOM     17  C   UNL     1      42.689  18.742  20.771  0.00  0.00    -0.011 C 
BRANCH  17  18
ATOM     18  C   UNL     1      41.251  19.190  20.748  0.00  0.00    +0.221 C 
BRANCH  18  19
ATOM     19  O   UNL     1      40.470  18.335  21.585  0.00  0.00    -0.570 OA
ATOM     20  H   UNL     1      40.930  17.530  21.863  0.00  0.00    +0.384 HD
ENDBRANCH  18  19
ENDBRANCH  17  18
ENDBRANCH   3   2
TORSDOF 3
ENDMDL
