MODEL 1
REMARK VINA RESULT:      -5.1      0.000      0.000
REMARK  Name = ZINC00900216
REMARK  6 active torsions:
REMARK  status: ('A' for Active; 'I' for Inactive)
REMARK    1  A    between atoms: C1_1  and  O1_2
REMARK    2  A    between atoms: O1_2  and  C2_3
REMARK    3  A    between atoms: C7_8  and  O2_9
REMARK    4  A    between atoms: O2_9  and  C8_10
REMARK    5  A    between atoms: C11_14  and  O3_15
REMARK    6  A    between atoms: O3_15  and  C12_16
REMARK                            x       y       z     vdW  Elec       q    Type
REMARK                         _______ _______ _______ _____ _____    ______ ____
ROOT
ATOM      3  C   UNL     1      46.082  21.806  21.362  0.00  0.00    +0.120 A 
ATOM      4  C   UNL     1      45.204  20.827  20.999  0.00  0.00    -0.010 A 
ATOM      5  C   UNL     1      44.027  21.170  20.312  0.00  0.00    -0.124 A 
ATOM      6  C   UNL     1      43.761  22.528  20.001  0.00  0.00    +0.203 A 
ATOM      7  N   UNL     1      42.646  22.869  19.347  0.00  0.00    -0.475 NA
ATOM      8  C   UNL     1      41.757  21.970  18.967  0.00  0.00    +0.309 A 
ATOM      9  C   UNL     1      41.957  20.600  19.243  0.00  0.00    -0.202 A 
ATOM     10  C   UNL     1      40.787  19.909  18.684  0.00  0.00    -0.030 A 
ATOM     11  C   UNL     1      40.016  20.860  18.145  0.00  0.00    +0.246 A 
ATOM     12  O   UNL     1      40.583  22.069  18.309  0.00  0.00    -0.192 OA
ATOM     13  C   UNL     1      44.687  23.511  20.390  0.00  0.00    -0.026 A 
ATOM     14  C   UNL     1      43.099  20.183  19.922  0.00  0.00    +0.208 A 
ATOM     17  C   UNL     1      45.820  23.150  21.062  0.00  0.00    +0.159 A 
ENDROOT
BRANCH   3   2
ATOM      1  C   UNL     1      48.285  20.914  21.256  0.00  0.00    +0.245 C 
ATOM      2  O   UNL     1      47.221  21.474  22.028  0.00  0.00    -0.300 OA
ENDBRANCH   3   2
BRANCH  14  15
ATOM     15  O   UNL     1      43.312  18.873  20.196  0.00  0.00    -0.326 OA
ATOM     16  C   UNL     1      42.698  18.350  21.377  0.00  0.00    +0.244 C 
ENDBRANCH  14  15
BRANCH  17  18
ATOM     18  O   UNL     1      46.708  24.106  21.440  0.00  0.00    -0.298 OA
ATOM     19  C   UNL     1      46.327  25.467  21.223  0.00  0.00    +0.251 C 
ENDBRANCH  17  18
TORSDOF 3
ENDMDL
MODEL 2
REMARK VINA RESULT:      -4.8      2.012      5.278
REMARK  Name = ZINC00900216
REMARK  6 active torsions:
REMARK  status: ('A' for Active; 'I' for Inactive)
REMARK    1  A    between atoms: C1_1  and  O1_2
REMARK    2  A    between atoms: O1_2  and  C2_3
REMARK    3  A    between atoms: C7_8  and  O2_9
REMARK    4  A    between atoms: O2_9  and  C8_10
REMARK    5  A    between atoms: C11_14  and  O3_15
REMARK    6  A    between atoms: O3_15  and  C12_16
REMARK                            x       y       z     vdW  Elec       q    Type
REMARK                         _______ _______ _______ _____ _____    ______ ____
ROOT
ATOM      3  C   UNL     1      43.115  22.561  19.471  0.00  0.00    +0.120 A 
ATOM      4  C   UNL     1      44.198  22.102  20.162  0.00  0.00    -0.010 A 
ATOM      5  C   UNL     1      44.278  20.741  20.503  0.00  0.00    -0.124 A 
ATOM      6  C   UNL     1      43.237  19.856  20.127  0.00  0.00    +0.203 A 
ATOM      7  N   UNL     1      43.300  18.558  20.443  0.00  0.00    -0.475 NA
ATOM      8  C   UNL     1      44.321  18.051  21.110  0.00  0.00    +0.309 A 
ATOM      9  C   UNL     1      45.393  18.875  21.516  0.00  0.00    -0.202 A 
ATOM     10  C   UNL     1      46.329  17.987  22.219  0.00  0.00    -0.030 A 
ATOM     11  C   UNL     1      45.781  16.767  22.185  0.00  0.00    +0.246 A 
ATOM     12  O   UNL     1      44.603  16.802  21.534  0.00  0.00    -0.192 OA
ATOM     13  C   UNL     1      42.135  20.362  19.415  0.00  0.00    -0.026 A 
ATOM     14  C   UNL     1      45.384  20.235  21.217  0.00  0.00    +0.208 A 
ATOM     17  C   UNL     1      42.079  21.690  19.102  0.00  0.00    +0.159 A 
ENDROOT
BRANCH   3   2
ATOM      1  C   UNL     1      44.254  24.530  18.776  0.00  0.00    +0.245 C 
ATOM      2  O   UNL     1      43.036  23.878  19.143  0.00  0.00    -0.300 OA
ENDBRANCH   3   2
BRANCH  14  15
ATOM     15  O   UNL     1      46.404  21.043  21.596  0.00  0.00    -0.326 OA
ATOM     16  C   UNL     1      47.564  21.058  20.761  0.00  0.00    +0.244 C 
ENDBRANCH  14  15
BRANCH  17  18
ATOM     18  O   UNL     1      41.009  22.173  18.420  0.00  0.00    -0.298 OA
ATOM     19  C   UNL     1      39.816  21.386  18.443  0.00  0.00    +0.251 C 
ENDBRANCH  17  18
TORSDOF 3
ENDMDL
MODEL 3
REMARK VINA RESULT:      -4.7      3.560      6.077
REMARK  Name = ZINC00900216
REMARK  6 active torsions:
REMARK  status: ('A' for Active; 'I' for Inactive)
REMARK    1  A    between atoms: C1_1  and  O1_2
REMARK    2  A    between atoms: O1_2  and  C2_3
REMARK    3  A    between atoms: C7_8  and  O2_9
REMARK    4  A    between atoms: O2_9  and  C8_10
REMARK    5  A    between atoms: C11_14  and  O3_15
REMARK    6  A    between atoms: O3_15  and  C12_16
REMARK                            x       y       z     vdW  Elec       q    Type
REMARK                         _______ _______ _______ _____ _____    ______ ____
ROOT
ATOM      3  C   UNL     1      45.011  21.517  19.753  0.00  0.00    +0.120 A 
ATOM      4  C   UNL     1      46.314  21.117  19.712  0.00  0.00    -0.010 A 
ATOM      5  C   UNL     1      46.655  19.928  19.044  0.00  0.00    -0.124 A 
ATOM      6  C   UNL     1      45.645  19.155  18.418  0.00  0.00    +0.203 A 
ATOM      7  N   UNL     1      45.955  18.023  17.778  0.00  0.00    -0.475 NA
ATOM      8  C   UNL     1      47.197  17.582  17.702  0.00  0.00    +0.309 A 
ATOM      9  C   UNL     1      48.253  18.301  18.303  0.00  0.00    -0.202 A 
ATOM     10  C   UNL     1      49.469  17.527  18.021  0.00  0.00    -0.030 A 
ATOM     11  C   UNL     1      49.076  16.461  17.312  0.00  0.00    +0.246 A 
ATOM     12  O   UNL     1      47.744  16.492  17.124  0.00  0.00    -0.192 OA
ATOM     13  C   UNL     1      44.312  19.597  18.480  0.00  0.00    -0.026 A 
ATOM     14  C   UNL     1      47.993  19.487  18.984  0.00  0.00    +0.208 A 
ATOM     17  C   UNL     1      44.008  20.753  19.140  0.00  0.00    +0.159 A 
ENDROOT
BRANCH   3   2
ATOM      1  C   UNL     1      44.746  22.649  21.828  0.00  0.00    +0.245 C 
ATOM      2  O   UNL     1      44.680  22.667  20.401  0.00  0.00    -0.300 OA
ENDBRANCH   3   2
BRANCH  14  15
ATOM     15  O   UNL     1      48.992  20.194  19.567  0.00  0.00    -0.326 OA
ATOM     16  C   UNL     1      49.853  20.936  18.699  0.00  0.00    +0.244 C 
ENDBRANCH  14  15
BRANCH  17  18
ATOM     18  O   UNL     1      42.716  21.170  19.200  0.00  0.00    -0.298 OA
ATOM     19  C   UNL     1      41.740  20.356  18.546  0.00  0.00    +0.251 C 
ENDBRANCH  17  18
TORSDOF 3
ENDMDL
MODEL 4
REMARK VINA RESULT:      -4.7      4.130      5.916
REMARK  Name = ZINC00900216
REMARK  6 active torsions:
REMARK  status: ('A' for Active; 'I' for Inactive)
REMARK    1  A    between atoms: C1_1  and  O1_2
REMARK    2  A    between atoms: O1_2  and  C2_3
REMARK    3  A    between atoms: C7_8  and  O2_9
REMARK    4  A    between atoms: O2_9  and  C8_10
REMARK    5  A    between atoms: C11_14  and  O3_15
REMARK    6  A    between atoms: O3_15  and  C12_16
REMARK                            x       y       z     vdW  Elec       q    Type
REMARK                         _______ _______ _______ _____ _____    ______ ____
ROOT
ATOM      3  C   UNL     1      43.432  19.098  20.412  0.00  0.00    +0.120 A 
ATOM      4  C   UNL     1      43.961  17.841  20.403  0.00  0.00    -0.010 A 
ATOM      5  C   UNL     1      44.962  17.515  19.473  0.00  0.00    -0.124 A 
ATOM      6  C   UNL     1      45.416  18.493  18.552  0.00  0.00    +0.203 A 
ATOM      7  N   UNL     1      46.368  18.199  17.662  0.00  0.00    -0.475 NA
ATOM      8  C   UNL     1      46.921  17.001  17.602  0.00  0.00    +0.309 A 
ATOM      9  C   UNL     1      46.518  15.979  18.489  0.00  0.00    -0.202 A 
ATOM     10  C   UNL     1      47.331  14.807  18.137  0.00  0.00    -0.030 A 
ATOM     11  C   UNL     1      48.117  15.190  17.124  0.00  0.00    +0.246 A 
ATOM     12  O   UNL     1      47.879  16.476  16.809  0.00  0.00    -0.192 OA
ATOM     13  C   UNL     1      44.849  19.779  18.589  0.00  0.00    -0.026 A 
ATOM     14  C   UNL     1      45.530  16.225  19.438  0.00  0.00    +0.208 A 
ATOM     17  C   UNL     1      43.874  20.067  19.500  0.00  0.00    +0.159 A 
ENDROOT
BRANCH   3   2
ATOM      1  C   UNL     1      41.150  18.906  21.057  0.00  0.00    +0.245 C 
ATOM      2  O   UNL     1      42.462  19.413  21.312  0.00  0.00    -0.300 OA
ENDBRANCH   3   2
BRANCH  14  15
ATOM     15  O   UNL     1      45.128  15.258  20.299  0.00  0.00    -0.326 OA
ATOM     16  C   UNL     1      45.943  15.041  21.453  0.00  0.00    +0.244 C 
ENDBRANCH  14  15
BRANCH  17  18
ATOM     18  O   UNL     1      43.327  21.310  19.526  0.00  0.00    -0.298 OA
ATOM     19  C   UNL     1      44.174  22.384  19.941  0.00  0.00    +0.251 C 
ENDBRANCH  17  18
TORSDOF 3
ENDMDL
MODEL 5
REMARK VINA RESULT:      -4.6      3.044      4.495
REMARK  Name = ZINC00900216
REMARK  6 active torsions:
REMARK  status: ('A' for Active; 'I' for Inactive)
REMARK    1  A    between atoms: C1_1  and  O1_2
REMARK    2  A    between atoms: O1_2  and  C2_3
REMARK    3  A    between atoms: C7_8  and  O2_9
REMARK    4  A    between atoms: O2_9  and  C8_10
REMARK    5  A    between atoms: C11_14  and  O3_15
REMARK    6  A    between atoms: O3_15  and  C12_16
REMARK                            x       y       z     vdW  Elec       q    Type
REMARK                         _______ _______ _______ _____ _____    ______ ____
ROOT
ATOM      3  C   UNL     1      48.375  19.876  19.155  0.00  0.00    +0.120 A 
ATOM      4  C   UNL     1      47.462  20.825  19.509  0.00  0.00    -0.010 A 
ATOM      5  C   UNL     1      46.102  20.622  19.220  0.00  0.00    -0.124 A 
ATOM      6  C   UNL     1      45.689  19.434  18.565  0.00  0.00    +0.203 A 
ATOM      7  N   UNL     1      44.399  19.226  18.284  0.00  0.00    -0.475 NA
ATOM      8  C   UNL     1      43.465  20.105  18.601  0.00  0.00    +0.309 A 
ATOM      9  C   UNL     1      43.805  21.309  19.255  0.00  0.00    -0.202 A 
ATOM     10  C   UNL     1      42.537  22.027  19.445  0.00  0.00    -0.030 A 
ATOM     11  C   UNL     1      41.585  21.246  18.921  0.00  0.00    +0.246 A 
ATOM     12  O   UNL     1      42.127  20.118  18.426  0.00  0.00    -0.192 OA
ATOM     13  C   UNL     1      46.657  18.477  18.214  0.00  0.00    -0.026 A 
ATOM     14  C   UNL     1      45.132  21.583  19.573  0.00  0.00    +0.208 A 
ATOM     17  C   UNL     1      47.972  18.703  18.501  0.00  0.00    +0.159 A 
ENDROOT
BRANCH   3   2
ATOM      1  C   UNL     1      50.409  20.970  18.582  0.00  0.00    +0.245 C 
ATOM      2  O   UNL     1      49.692  20.073  19.434  0.00  0.00    -0.300 OA
ENDBRANCH   3   2
BRANCH  14  15
ATOM     15  O   UNL     1      45.480  22.732  20.202  0.00  0.00    -0.326 OA
ATOM     16  C   UNL     1      45.262  22.790  21.613  0.00  0.00    +0.244 C 
ENDBRANCH  14  15
BRANCH  17  18
ATOM     18  O   UNL     1      48.903  17.776  18.154  0.00  0.00    -0.298 OA
ATOM     19  C   UNL     1      48.451  16.660  17.383  0.00  0.00    +0.251 C 
ENDBRANCH  17  18
TORSDOF 3
ENDMDL
MODEL 6
REMARK VINA RESULT:      -4.6      3.795      6.071
REMARK  Name = ZINC00900216
REMARK  6 active torsions:
REMARK  status: ('A' for Active; 'I' for Inactive)
REMARK    1  A    between atoms: C1_1  and  O1_2
REMARK    2  A    between atoms: O1_2  and  C2_3
REMARK    3  A    between atoms: C7_8  and  O2_9
REMARK    4  A    between atoms: O2_9  and  C8_10
REMARK    5  A    between atoms: C11_14  and  O3_15
REMARK    6  A    between atoms: O3_15  and  C12_16
REMARK                            x       y       z     vdW  Elec       q    Type
REMARK                         _______ _______ _______ _____ _____    ______ ____
ROOT
ATOM      3  C   UNL     1      44.257  20.251  18.867  0.00  0.00    +0.120 A 
ATOM      4  C   UNL     1      44.914  19.162  18.376  0.00  0.00    -0.010 A 
ATOM      5  C   UNL     1      46.316  19.101  18.457  0.00  0.00    -0.124 A 
ATOM      6  C   UNL     1      47.036  20.170  19.048  0.00  0.00    +0.203 A 
ATOM      7  N   UNL     1      48.369  20.127  19.133  0.00  0.00    -0.475 NA
ATOM      8  C   UNL     1      49.064  19.101  18.678  0.00  0.00    +0.309 A 
ATOM      9  C   UNL     1      48.412  18.001  18.078  0.00  0.00    -0.202 A 
ATOM     10  C   UNL     1      49.481  17.068  17.698  0.00  0.00    -0.030 A 
ATOM     11  C   UNL     1      50.629  17.642  18.077  0.00  0.00    +0.246 A 
ATOM     12  O   UNL     1      50.387  18.834  18.652  0.00  0.00    -0.192 OA
ATOM     13  C   UNL     1      46.326  21.279  19.543  0.00  0.00    -0.026 A 
ATOM     14  C   UNL     1      47.026  17.989  17.959  0.00  0.00    +0.208 A 
ATOM     17  C   UNL     1      44.965  21.314  19.447  0.00  0.00    +0.159 A 
ENDROOT
BRANCH   3   2
ATOM      1  C   UNL     1      42.160  19.525  19.723  0.00  0.00    +0.245 C 
ATOM      2  O   UNL     1      42.900  20.310  18.787  0.00  0.00    -0.300 OA
ENDBRANCH   3   2
BRANCH  14  15
ATOM     15  O   UNL     1      46.380  16.943  17.388  0.00  0.00    -0.326 OA
ATOM     16  C   UNL     1      46.208  15.772  18.189  0.00  0.00    +0.244 C 
ENDBRANCH  14  15
BRANCH  17  18
ATOM     18  O   UNL     1      44.287  22.390  19.923  0.00  0.00    -0.298 OA
ATOM     19  C   UNL     1      44.675  22.886  21.206  0.00  0.00    +0.251 C 
ENDBRANCH  17  18
TORSDOF 3
ENDMDL
MODEL 7
REMARK VINA RESULT:      -4.6      2.324      4.266
REMARK  Name = ZINC00900216
REMARK  6 active torsions:
REMARK  status: ('A' for Active; 'I' for Inactive)
REMARK    1  A    between atoms: C1_1  and  O1_2
REMARK    2  A    between atoms: O1_2  and  C2_3
REMARK    3  A    between atoms: C7_8  and  O2_9
REMARK    4  A    between atoms: O2_9  and  C8_10
REMARK    5  A    between atoms: C11_14  and  O3_15
REMARK    6  A    between atoms: O3_15  and  C12_16
REMARK                            x       y       z     vdW  Elec       q    Type
REMARK                         _______ _______ _______ _____ _____    ______ ____
ROOT
ATOM      3  C   UNL     1      46.455  18.715  20.694  0.00  0.00    +0.120 A 
ATOM      4  C   UNL     1      45.938  19.892  20.240  0.00  0.00    -0.010 A 
ATOM      5  C   UNL     1      44.563  19.987  19.965  0.00  0.00    -0.124 A 
ATOM      6  C   UNL     1      43.724  18.862  20.163  0.00  0.00    +0.203 A 
ATOM      7  N   UNL     1      42.415  18.937  19.907  0.00  0.00    -0.475 NA
ATOM      8  C   UNL     1      41.852  20.048  19.466  0.00  0.00    +0.309 A 
ATOM      9  C   UNL     1      42.628  21.207  19.247  0.00  0.00    -0.202 A 
ATOM     10  C   UNL     1      41.686  22.228  18.766  0.00  0.00    -0.030 A 
ATOM     11  C   UNL     1      40.485  21.639  18.734  0.00  0.00    +0.246 A 
ATOM     12  O   UNL     1      40.580  20.361  19.144  0.00  0.00    -0.192 OA
ATOM     13  C   UNL     1      44.290  17.663  20.632  0.00  0.00    -0.026 A 
ATOM     14  C   UNL     1      43.998  21.190  19.495  0.00  0.00    +0.208 A 
ATOM     17  C   UNL     1      45.630  17.597  20.886  0.00  0.00    +0.159 A 
ENDROOT
BRANCH   3   2
ATOM      1  C   UNL     1      48.421  19.778  21.510  0.00  0.00    +0.245 C 
ATOM      2  O   UNL     1      47.787  18.622  20.959  0.00  0.00    -0.300 OA
ENDBRANCH   3   2
BRANCH  14  15
ATOM     15  O   UNL     1      44.761  22.292  19.293  0.00  0.00    -0.326 OA
ATOM     16  C   UNL     1      44.825  23.240  20.361  0.00  0.00    +0.244 C 
ENDBRANCH  14  15
BRANCH  17  18
ATOM     18  O   UNL     1      46.171  16.434  21.333  0.00  0.00    -0.298 OA
ATOM     19  C   UNL     1      45.379  15.252  21.188  0.00  0.00    +0.251 C 
ENDBRANCH  17  18
TORSDOF 3
ENDMDL
MODEL 8
REMARK VINA RESULT:      -4.6      4.136      6.254
REMARK  Name = ZINC00900216
REMARK  6 active torsions:
REMARK  status: ('A' for Active; 'I' for Inactive)
REMARK    1  A    between atoms: C1_1  and  O1_2
REMARK    2  A    between atoms: O1_2  and  C2_3
REMARK    3  A    between atoms: C7_8  and  O2_9
REMARK    4  A    between atoms: O2_9  and  C8_10
REMARK    5  A    between atoms: C11_14  and  O3_15
REMARK    6  A    between atoms: O3_15  and  C12_16
REMARK                            x       y       z     vdW  Elec       q    Type
REMARK                         _______ _______ _______ _____ _____    ______ ____
ROOT
ATOM      3  C   UNL     1      45.440  15.229  19.519  0.00  0.00    +0.120 A 
ATOM      4  C   UNL     1      44.956  16.274  20.250  0.00  0.00    -0.010 A 
ATOM      5  C   UNL     1      45.147  17.589  19.794  0.00  0.00    -0.124 A 
ATOM      6  C   UNL     1      45.840  17.821  18.579  0.00  0.00    +0.203 A 
ATOM      7  N   UNL     1      46.029  19.067  18.132  0.00  0.00    -0.475 NA
ATOM      8  C   UNL     1      45.584  20.120  18.793  0.00  0.00    +0.309 A 
ATOM      9  C   UNL     1      44.886  19.963  20.010  0.00  0.00    -0.202 A 
ATOM     10  C   UNL     1      44.552  21.323  20.452  0.00  0.00    -0.030 A 
ATOM     11  C   UNL     1      45.045  22.149  19.522  0.00  0.00    +0.246 A 
ATOM     12  O   UNL     1      45.651  21.446  18.548  0.00  0.00    -0.192 OA
ATOM     13  C   UNL     1      46.326  16.722  17.850  0.00  0.00    -0.026 A 
ATOM     14  C   UNL     1      44.659  18.691  20.527  0.00  0.00    +0.208 A 
ATOM     17  C   UNL     1      46.130  15.454  18.319  0.00  0.00    +0.159 A 
ENDROOT
BRANCH   3   2
ATOM      1  C   UNL     1      45.433  13.722  21.359  0.00  0.00    +0.245 C 
ATOM      2  O   UNL     1      45.256  13.956  19.961  0.00  0.00    -0.300 OA
ENDBRANCH   3   2
BRANCH  14  15
ATOM     15  O   UNL     1      43.990  18.516  21.693  0.00  0.00    -0.326 OA
ATOM     16  C   UNL     1      42.564  18.595  21.639  0.00  0.00    +0.244 C 
ENDBRANCH  14  15
BRANCH  17  18
ATOM     18  O   UNL     1      46.608  14.397  17.612  0.00  0.00    -0.298 OA
ATOM     19  C   UNL     1      47.757  14.630  16.794  0.00  0.00    +0.251 C 
ENDBRANCH  17  18
TORSDOF 3
ENDMDL
MODEL 9
REMARK VINA RESULT:      -4.5      4.806      6.832
REMARK  Name = ZINC00900216
REMARK  6 active torsions:
REMARK  status: ('A' for Active; 'I' for Inactive)
REMARK    1  A    between atoms: C1_1  and  O1_2
REMARK    2  A    between atoms: O1_2  and  C2_3
REMARK    3  A    between atoms: C7_8  and  O2_9
REMARK    4  A    between atoms: O2_9  and  C8_10
REMARK    5  A    between atoms: C11_14  and  O3_15
REMARK    6  A    between atoms: O3_15  and  C12_16
REMARK                            x       y       z     vdW  Elec       q    Type
REMARK                         _______ _______ _______ _____ _____    ______ ____
ROOT
ATOM      3  C   UNL     1      44.656  19.301  19.114  0.00  0.00    +0.120 A 
ATOM      4  C   UNL     1      45.491  18.543  18.345  0.00  0.00    -0.010 A 
ATOM      5  C   UNL     1      45.686  17.188  18.661  0.00  0.00    -0.124 A 
ATOM      6  C   UNL     1      45.015  16.618  19.772  0.00  0.00    +0.203 A 
ATOM      7  N   UNL     1      45.190  15.330  20.084  0.00  0.00    -0.475 NA
ATOM      8  C   UNL     1      45.983  14.543  19.380  0.00  0.00    +0.309 A 
ATOM      9  C   UNL     1      46.682  15.044  18.261  0.00  0.00    -0.202 A 
ATOM     10  C   UNL     1      47.452  13.908  17.735  0.00  0.00    -0.030 A 
ATOM     11  C   UNL     1      47.174  12.869  18.531  0.00  0.00    +0.246 A 
ATOM     12  O   UNL     1      46.312  13.240  19.497  0.00  0.00    -0.192 OA
ATOM     13  C   UNL     1      44.162  17.428  20.543  0.00  0.00    -0.026 A 
ATOM     14  C   UNL     1      46.542  16.377  17.887  0.00  0.00    +0.208 A 
ATOM     17  C   UNL     1      43.995  18.743  20.217  0.00  0.00    +0.159 A 
ENDROOT
BRANCH   3   2
ATOM      1  C   UNL     1      45.534  21.512  19.124  0.00  0.00    +0.245 C 
ATOM      2  O   UNL     1      44.468  20.614  18.809  0.00  0.00    -0.300 OA
ENDBRANCH   3   2
BRANCH  14  15
ATOM     15  O   UNL     1      47.203  16.879  16.815  0.00  0.00    -0.326 OA
ATOM     16  C   UNL     1      48.568  17.251  17.012  0.00  0.00    +0.244 C 
ENDBRANCH  14  15
BRANCH  17  18
ATOM     18  O   UNL     1      43.174  19.521  20.970  0.00  0.00    -0.298 OA
ATOM     19  C   UNL     1      41.934  18.943  21.385  0.00  0.00    +0.251 C 
ENDBRANCH  17  18
TORSDOF 3
ENDMDL
