MODEL 1
REMARK VINA RESULT:      -6.0      0.000      0.000
REMARK  Name = ZINC14422042
REMARK  10 active torsions:
REMARK  status: ('A' for Active; 'I' for Inactive)
REMARK    1  A    between atoms: C2_2  and  C7_10
REMARK    2  A    between atoms: C4_4  and  O3_9
REMARK    3  A    between atoms: C5_5  and  O2_8
REMARK    4  A    between atoms: C6_6  and  O1_7
REMARK    5  A    between atoms: C7_10  and  O5_12
REMARK    6  A    between atoms: O5_12  and  C8_13
REMARK    7  A    between atoms: C8_13  and  C9_14
REMARK    8  A    between atoms: C10_16  and  O9_26
REMARK    9  A    between atoms: C11_18  and  O8_25
REMARK   10  A    between atoms: C12_20  and  O7_24
REMARK                            x       y       z     vdW  Elec       q    Type
REMARK                         _______ _______ _______ _____ _____    ______ ____
ROOT
ATOM      3  C   UNL     1      45.082  16.501  20.416  0.00  0.00    +0.515 C 
ATOM     18  O   UNL     1      44.834  15.769  21.352  0.00  0.00    -0.497 OA
ENDROOT
BRANCH   3   2
ATOM      1  C   UNL     1      46.032  16.795  18.135  0.00  0.00    +0.081 A 
ATOM      2  C   UNL     1      45.627  15.942  19.165  0.00  0.00    -0.102 A 
ATOM     19  C   UNL     1      45.746  14.558  19.010  0.00  0.00    +0.075 A 
ATOM     20  C   UNL     1      46.252  14.037  17.834  0.00  0.00    +0.085 A 
ATOM     23  C   UNL     1      46.654  14.889  16.809  0.00  0.00    +0.094 A 
ATOM     26  C   UNL     1      46.543  16.268  16.963  0.00  0.00    +0.087 A 
BRANCH  20  21
ATOM     21  O   UNL     1      46.362  12.689  17.680  0.00  0.00    -0.479 OA
ATOM     22  H   UNL     1      45.832  12.332  16.955  0.00  0.00    +0.392 HD
ENDBRANCH  20  21
BRANCH  23  24
ATOM     24  O   UNL     1      47.157  14.374  15.657  0.00  0.00    -0.473 OA
ATOM     25  H   UNL     1      47.120  14.981  14.905  0.00  0.00    +0.392 HD
ENDBRANCH  23  24
BRANCH  26  27
ATOM     27  O   UNL     1      46.936  17.097  15.961  0.00  0.00    -0.478 OA
ATOM     28  H   UNL     1      46.208  17.569  15.532  0.00  0.00    +0.393 HD
ENDBRANCH  26  27
ENDBRANCH   3   2
BRANCH   3   4
ATOM      4  O   UNL     1      44.857  17.827  20.519  0.00  0.00    -0.344 OA
BRANCH   4   5
ATOM      5  C   UNL     1      43.477  18.251  20.668  0.00  0.00    +0.270 C 
BRANCH   5   6
ATOM      6  C   UNL     1      43.196  19.416  19.717  0.00  0.00    +0.186 C 
ATOM      7  C   UNL     1      43.501  20.738  20.424  0.00  0.00    +0.173 C 
ATOM     10  C   UNL     1      43.159  21.901  19.487  0.00  0.00    +0.158 C 
ATOM     13  C   UNL     1      41.690  21.791  19.069  0.00  0.00    +0.116 C 
ATOM     16  C   UNL     1      41.454  20.428  18.414  0.00  0.00    +0.204 C 
ATOM     17  O   UNL     1      41.820  19.392  19.328  0.00  0.00    -0.355 OA
BRANCH   7   8
ATOM      8  O   UNL     1      44.888  20.789  20.764  0.00  0.00    -0.552 OA
ATOM      9  H   UNL     1      45.315  21.631  20.551  0.00  0.00    +0.396 HD
ENDBRANCH   7   8
BRANCH  10  11
ATOM     11  O   UNL     1      43.372  23.141  20.166  0.00  0.00    -0.560 OA
ATOM     12  H   UNL     1      43.205  23.102  21.117  0.00  0.00    +0.394 HD
ENDBRANCH  10  11
BRANCH  13  14
ATOM     14  O   UNL     1      41.379  22.828  18.137  0.00  0.00    -0.560 OA
ATOM     15  H   UNL     1      40.643  23.394  18.409  0.00  0.00    +0.389 HD
ENDBRANCH  13  14
ENDBRANCH   5   6
ENDBRANCH   4   5
ENDBRANCH   3   4
TORSDOF 10
ENDMDL
MODEL 2
REMARK VINA RESULT:      -5.8      4.142      5.337
REMARK  Name = ZINC14422042
REMARK  10 active torsions:
REMARK  status: ('A' for Active; 'I' for Inactive)
REMARK    1  A    between atoms: C2_2  and  C7_10
REMARK    2  A    between atoms: C4_4  and  O3_9
REMARK    3  A    between atoms: C5_5  and  O2_8
REMARK    4  A    between atoms: C6_6  and  O1_7
REMARK    5  A    between atoms: C7_10  and  O5_12
REMARK    6  A    between atoms: O5_12  and  C8_13
REMARK    7  A    between atoms: C8_13  and  C9_14
REMARK    8  A    between atoms: C10_16  and  O9_26
REMARK    9  A    between atoms: C11_18  and  O8_25
REMARK   10  A    between atoms: C12_20  and  O7_24
REMARK                            x       y       z     vdW  Elec       q    Type
REMARK                         _______ _______ _______ _____ _____    ______ ____
ROOT
ATOM      3  C   UNL     1      49.085  20.630  19.503  0.00  0.00    +0.515 C 
ATOM     18  O   UNL     1      49.526  20.888  20.605  0.00  0.00    -0.497 OA
ENDROOT
BRANCH   3   2
ATOM      1  C   UNL     1      50.042  18.762  18.167  0.00  0.00    +0.081 A 
ATOM      2  C   UNL     1      49.984  20.130  18.447  0.00  0.00    -0.102 A 
ATOM     19  C   UNL     1      50.775  21.023  17.719  0.00  0.00    +0.075 A 
ATOM     20  C   UNL     1      51.621  20.551  16.734  0.00  0.00    +0.085 A 
ATOM     23  C   UNL     1      51.677  19.188  16.457  0.00  0.00    +0.094 A 
ATOM     26  C   UNL     1      50.886  18.296  17.176  0.00  0.00    +0.087 A 
BRANCH  20  21
ATOM     21  O   UNL     1      52.395  21.420  16.029  0.00  0.00    -0.479 OA
ATOM     22  H   UNL     1      51.959  21.792  15.250  0.00  0.00    +0.392 HD
ENDBRANCH  20  21
BRANCH  23  24
ATOM     24  O   UNL     1      52.505  18.726  15.484  0.00  0.00    -0.473 OA
ATOM     25  H   UNL     1      52.182  17.934  15.035  0.00  0.00    +0.392 HD
ENDBRANCH  23  24
BRANCH  26  27
ATOM     27  O   UNL     1      50.944  16.965  16.905  0.00  0.00    -0.478 OA
ATOM     28  H   UNL     1      51.843  16.618  16.825  0.00  0.00    +0.393 HD
ENDBRANCH  26  27
ENDBRANCH   3   2
BRANCH   3   4
ATOM      4  O   UNL     1      47.773  20.800  19.246  0.00  0.00    -0.344 OA
BRANCH   4   5
ATOM      5  C   UNL     1      46.851  20.573  20.345  0.00  0.00    +0.270 C 
BRANCH   5   6
ATOM      6  C   UNL     1      45.500  20.118  19.791  0.00  0.00    +0.186 C 
ATOM      7  C   UNL     1      44.552  21.316  19.707  0.00  0.00    +0.173 C 
ATOM     10  C   UNL     1      43.183  20.841  19.209  0.00  0.00    +0.158 C 
ATOM     13  C   UNL     1      42.660  19.751  20.150  0.00  0.00    +0.116 C 
ATOM     16  C   UNL     1      43.681  18.613  20.218  0.00  0.00    +0.204 C 
ATOM     17  O   UNL     1      44.939  19.129  20.658  0.00  0.00    -0.355 OA
BRANCH   7   8
ATOM      8  O   UNL     1      45.082  22.282  18.797  0.00  0.00    -0.552 OA
ATOM      9  H   UNL     1      44.920  23.199  19.058  0.00  0.00    +0.396 HD
ENDBRANCH   7   8
BRANCH  10  11
ATOM     11  O   UNL     1      42.271  21.941  19.198  0.00  0.00    -0.560 OA
ATOM     12  H   UNL     1      42.663  22.780  19.474  0.00  0.00    +0.394 HD
ENDBRANCH  10  11
BRANCH  13  14
ATOM     14  O   UNL     1      41.417  19.249  19.656  0.00  0.00    -0.560 OA
ATOM     15  H   UNL     1      40.856  18.849  20.334  0.00  0.00    +0.389 HD
ENDBRANCH  13  14
ENDBRANCH   5   6
ENDBRANCH   4   5
ENDBRANCH   3   4
TORSDOF 10
ENDMDL
MODEL 3
REMARK VINA RESULT:      -5.8      4.127      5.035
REMARK  Name = ZINC14422042
REMARK  10 active torsions:
REMARK  status: ('A' for Active; 'I' for Inactive)
REMARK    1  A    between atoms: C2_2  and  C7_10
REMARK    2  A    between atoms: C4_4  and  O3_9
REMARK    3  A    between atoms: C5_5  and  O2_8
REMARK    4  A    between atoms: C6_6  and  O1_7
REMARK    5  A    between atoms: C7_10  and  O5_12
REMARK    6  A    between atoms: O5_12  and  C8_13
REMARK    7  A    between atoms: C8_13  and  C9_14
REMARK    8  A    between atoms: C10_16  and  O9_26
REMARK    9  A    between atoms: C11_18  and  O8_25
REMARK   10  A    between atoms: C12_20  and  O7_24
REMARK                            x       y       z     vdW  Elec       q    Type
REMARK                         _______ _______ _______ _____ _____    ______ ____
ROOT
ATOM      3  C   UNL     1      49.081  20.636  19.515  0.00  0.00    +0.515 C 
ATOM     18  O   UNL     1      49.530  20.883  20.616  0.00  0.00    -0.497 OA
ENDROOT
BRANCH   3   2
ATOM      1  C   UNL     1      50.772  21.013  17.729  0.00  0.00    +0.081 A 
ATOM      2  C   UNL     1      49.969  20.127  18.453  0.00  0.00    -0.102 A 
ATOM     19  C   UNL     1      50.014  18.759  18.173  0.00  0.00    +0.075 A 
ATOM     20  C   UNL     1      50.843  18.286  17.174  0.00  0.00    +0.085 A 
ATOM     23  C   UNL     1      51.642  19.170  16.453  0.00  0.00    +0.094 A 
ATOM     26  C   UNL     1      51.603  20.533  16.733  0.00  0.00    +0.087 A 
BRANCH  20  21
ATOM     21  O   UNL     1      50.883  16.955  16.897  0.00  0.00    -0.479 OA
ATOM     22  H   UNL     1      51.729  16.654  16.535  0.00  0.00    +0.392 HD
ENDBRANCH  20  21
BRANCH  23  24
ATOM     24  O   UNL     1      52.460  18.702  15.475  0.00  0.00    -0.473 OA
ATOM     25  H   UNL     1      52.379  17.752  15.315  0.00  0.00    +0.392 HD
ENDBRANCH  23  24
BRANCH  26  27
ATOM     27  O   UNL     1      52.383  21.395  16.028  0.00  0.00    -0.478 OA
ATOM     28  H   UNL     1      52.678  21.050  15.173  0.00  0.00    +0.393 HD
ENDBRANCH  26  27
ENDBRANCH   3   2
BRANCH   3   4
ATOM      4  O   UNL     1      47.771  20.825  19.264  0.00  0.00    -0.344 OA
BRANCH   4   5
ATOM      5  C   UNL     1      46.849  20.601  20.363  0.00  0.00    +0.270 C 
BRANCH   5   6
ATOM      6  C   UNL     1      45.505  20.124  19.812  0.00  0.00    +0.186 C 
ATOM      7  C   UNL     1      44.549  21.313  19.694  0.00  0.00    +0.173 C 
ATOM     10  C   UNL     1      43.186  20.817  19.200  0.00  0.00    +0.158 C 
ATOM     13  C   UNL     1      42.665  19.746  20.163  0.00  0.00    +0.116 C 
ATOM     16  C   UNL     1      43.693  18.617  20.263  0.00  0.00    +0.204 C 
ATOM     17  O   UNL     1      44.945  19.151  20.699  0.00  0.00    -0.355 OA
BRANCH   7   8
ATOM      8  O   UNL     1      45.079  22.261  18.766  0.00  0.00    -0.552 OA
ATOM      9  H   UNL     1      44.656  22.239  17.896  0.00  0.00    +0.396 HD
ENDBRANCH   7   8
BRANCH  10  11
ATOM     11  O   UNL     1      42.267  21.911  19.158  0.00  0.00    -0.560 OA
ATOM     12  H   UNL     1      41.985  22.221  20.028  0.00  0.00    +0.394 HD
ENDBRANCH  10  11
BRANCH  13  14
ATOM     14  O   UNL     1      41.429  19.225  19.673  0.00  0.00    -0.560 OA
ATOM     15  H   UNL     1      40.682  19.349  20.275  0.00  0.00    +0.389 HD
ENDBRANCH  13  14
ENDBRANCH   5   6
ENDBRANCH   4   5
ENDBRANCH   3   4
TORSDOF 10
ENDMDL
MODEL 4
REMARK VINA RESULT:      -5.8      4.635      5.642
REMARK  Name = ZINC14422042
REMARK  10 active torsions:
REMARK  status: ('A' for Active; 'I' for Inactive)
REMARK    1  A    between atoms: C2_2  and  C7_10
REMARK    2  A    between atoms: C4_4  and  O3_9
REMARK    3  A    between atoms: C5_5  and  O2_8
REMARK    4  A    between atoms: C6_6  and  O1_7
REMARK    5  A    between atoms: C7_10  and  O5_12
REMARK    6  A    between atoms: O5_12  and  C8_13
REMARK    7  A    between atoms: C8_13  and  C9_14
REMARK    8  A    between atoms: C10_16  and  O9_26
REMARK    9  A    between atoms: C11_18  and  O8_25
REMARK   10  A    between atoms: C12_20  and  O7_24
REMARK                            x       y       z     vdW  Elec       q    Type
REMARK                         _______ _______ _______ _____ _____    ______ ____
ROOT
ATOM      3  C   UNL     1      50.010  20.546  20.248  0.00  0.00    +0.515 C 
ATOM     18  O   UNL     1      50.531  20.318  21.321  0.00  0.00    -0.497 OA
ENDROOT
BRANCH   3   2
ATOM      1  C   UNL     1      51.167  18.869  18.818  0.00  0.00    +0.081 A 
ATOM      2  C   UNL     1      50.701  20.175  18.999  0.00  0.00    -0.102 A 
ATOM     19  C   UNL     1      50.888  21.125  17.992  0.00  0.00    +0.075 A 
ATOM     20  C   UNL     1      51.541  20.776  16.825  0.00  0.00    +0.085 A 
ATOM     23  C   UNL     1      52.003  19.475  16.648  0.00  0.00    +0.094 A 
ATOM     26  C   UNL     1      51.814  18.524  17.646  0.00  0.00    +0.087 A 
BRANCH  20  21
ATOM     21  O   UNL     1      51.727  21.703  15.847  0.00  0.00    -0.479 OA
ATOM     22  H   UNL     1      51.880  21.323  14.970  0.00  0.00    +0.392 HD
ENDBRANCH  20  21
BRANCH  23  24
ATOM     24  O   UNL     1      52.640  19.132  15.497  0.00  0.00    -0.473 OA
ATOM     25  H   UNL     1      52.762  18.180  15.383  0.00  0.00    +0.392 HD
ENDBRANCH  23  24
BRANCH  26  27
ATOM     27  O   UNL     1      52.268  17.254  17.470  0.00  0.00    -0.478 OA
ATOM     28  H   UNL     1      52.805  17.134  16.675  0.00  0.00    +0.393 HD
ENDBRANCH  26  27
ENDBRANCH   3   2
BRANCH   3   4
ATOM      4  O   UNL     1      48.800  21.137  20.198  0.00  0.00    -0.344 OA
BRANCH   4   5
ATOM      5  C   UNL     1      47.651  20.316  20.534  0.00  0.00    +0.270 C 
BRANCH   5   6
ATOM      6  C   UNL     1      46.418  20.837  19.793  0.00  0.00    +0.186 C 
ATOM      7  C   UNL     1      45.643  21.795  20.701  0.00  0.00    +0.173 C 
ATOM     10  C   UNL     1      44.378  22.264  19.975  0.00  0.00    +0.158 C 
ATOM     13  C   UNL     1      43.547  21.041  19.578  0.00  0.00    +0.116 C 
ATOM     16  C   UNL     1      44.403  20.111  18.713  0.00  0.00    +0.204 C 
ATOM     17  O   UNL     1      45.577  19.737  19.436  0.00  0.00    -0.355 OA
BRANCH   7   8
ATOM      8  O   UNL     1      46.462  22.924  21.014  0.00  0.00    -0.552 OA
ATOM      9  H   UNL     1      46.809  23.386  20.238  0.00  0.00    +0.396 HD
ENDBRANCH   7   8
BRANCH  10  11
ATOM     11  O   UNL     1      43.612  23.101  20.844  0.00  0.00    -0.560 OA
ATOM     12  H   UNL     1      44.067  23.339  21.663  0.00  0.00    +0.394 HD
ENDBRANCH  10  11
BRANCH  13  14
ATOM     14  O   UNL     1      42.401  21.462  18.836  0.00  0.00    -0.560 OA
ATOM     15  H   UNL     1      41.650  21.723  19.386  0.00  0.00    +0.389 HD
ENDBRANCH  13  14
ENDBRANCH   5   6
ENDBRANCH   4   5
ENDBRANCH   3   4
TORSDOF 10
ENDMDL
MODEL 5
REMARK VINA RESULT:      -5.8      4.619      8.244
REMARK  Name = ZINC14422042
REMARK  10 active torsions:
REMARK  status: ('A' for Active; 'I' for Inactive)
REMARK    1  A    between atoms: C2_2  and  C7_10
REMARK    2  A    between atoms: C4_4  and  O3_9
REMARK    3  A    between atoms: C5_5  and  O2_8
REMARK    4  A    between atoms: C6_6  and  O1_7
REMARK    5  A    between atoms: C7_10  and  O5_12
REMARK    6  A    between atoms: O5_12  and  C8_13
REMARK    7  A    between atoms: C8_13  and  C9_14
REMARK    8  A    between atoms: C10_16  and  O9_26
REMARK    9  A    between atoms: C11_18  and  O8_25
REMARK   10  A    between atoms: C12_20  and  O7_24
REMARK                            x       y       z     vdW  Elec       q    Type
REMARK                         _______ _______ _______ _____ _____    ______ ____
ROOT
ATOM      3  C   UNL     1      47.859  20.218  20.364  0.00  0.00    +0.515 C 
ATOM     18  O   UNL     1      47.811  19.080  20.784  0.00  0.00    -0.497 OA
ENDROOT
BRANCH   3   2
ATOM      1  C   UNL     1      46.554  22.251  20.959  0.00  0.00    +0.081 A 
ATOM      2  C   UNL     1      46.629  21.028  20.286  0.00  0.00    -0.102 A 
ATOM     19  C   UNL     1      45.540  20.578  19.537  0.00  0.00    +0.075 A 
ATOM     20  C   UNL     1      44.387  21.337  19.471  0.00  0.00    +0.085 A 
ATOM     23  C   UNL     1      44.314  22.555  20.142  0.00  0.00    +0.094 A 
ATOM     26  C   UNL     1      45.400  23.009  20.885  0.00  0.00    +0.087 A 
BRANCH  20  21
ATOM     21  O   UNL     1      43.323  20.897  18.746  0.00  0.00    -0.479 OA
ATOM     22  H   UNL     1      42.977  21.548  18.120  0.00  0.00    +0.392 HD
ENDBRANCH  20  21
BRANCH  23  24
ATOM     24  O   UNL     1      43.181  23.302  20.071  0.00  0.00    -0.473 OA
ATOM     25  H   UNL     1      42.414  22.895  20.495  0.00  0.00    +0.392 HD
ENDBRANCH  23  24
BRANCH  26  27
ATOM     27  O   UNL     1      45.326  24.198  21.540  0.00  0.00    -0.478 OA
ATOM     28  H   UNL     1      44.633  24.234  22.214  0.00  0.00    +0.393 HD
ENDBRANCH  26  27
ENDBRANCH   3   2
BRANCH   3   4
ATOM      4  O   UNL     1      49.037  20.742  19.969  0.00  0.00    -0.344 OA
BRANCH   4   5
ATOM      5  C   UNL     1      50.241  20.132  20.503  0.00  0.00    +0.270 C 
BRANCH   5   6
ATOM      6  C   UNL     1      51.120  19.644  19.350  0.00  0.00    +0.186 C 
ATOM      7  C   UNL     1      51.304  20.773  18.334  0.00  0.00    +0.173 C 
ATOM     10  C   UNL     1      52.134  20.258  17.153  0.00  0.00    +0.158 C 
ATOM     13  C   UNL     1      51.436  19.037  16.546  0.00  0.00    +0.116 C 
ATOM     16  C   UNL     1      51.247  17.975  17.632  0.00  0.00    +0.204 C 
ATOM     17  O   UNL     1      50.493  18.528  18.713  0.00  0.00    -0.355 OA
BRANCH   7   8
ATOM      8  O   UNL     1      51.981  21.868  18.953  0.00  0.00    -0.552 OA
ATOM      9  H   UNL     1      51.873  22.711  18.490  0.00  0.00    +0.396 HD
ENDBRANCH   7   8
BRANCH  10  11
ATOM     11  O   UNL     1      52.248  21.284  16.165  0.00  0.00    -0.560 OA
ATOM     12  H   UNL     1      51.581  21.234  15.467  0.00  0.00    +0.394 HD
ENDBRANCH  10  11
BRANCH  13  14
ATOM     14  O   UNL     1      52.237  18.504  15.491  0.00  0.00    -0.560 OA
ATOM     15  H   UNL     1      53.047  18.070  15.792  0.00  0.00    +0.389 HD
ENDBRANCH  13  14
ENDBRANCH   5   6
ENDBRANCH   4   5
ENDBRANCH   3   4
TORSDOF 10
ENDMDL
MODEL 6
REMARK VINA RESULT:      -5.7      4.599      8.377
REMARK  Name = ZINC14422042
REMARK  10 active torsions:
REMARK  status: ('A' for Active; 'I' for Inactive)
REMARK    1  A    between atoms: C2_2  and  C7_10
REMARK    2  A    between atoms: C4_4  and  O3_9
REMARK    3  A    between atoms: C5_5  and  O2_8
REMARK    4  A    between atoms: C6_6  and  O1_7
REMARK    5  A    between atoms: C7_10  and  O5_12
REMARK    6  A    between atoms: O5_12  and  C8_13
REMARK    7  A    between atoms: C8_13  and  C9_14
REMARK    8  A    between atoms: C10_16  and  O9_26
REMARK    9  A    between atoms: C11_18  and  O8_25
REMARK   10  A    between atoms: C12_20  and  O7_24
REMARK                            x       y       z     vdW  Elec       q    Type
REMARK                         _______ _______ _______ _____ _____    ______ ____
ROOT
ATOM      3  C   UNL     1      47.772  20.356  20.598  0.00  0.00    +0.515 C 
ATOM     18  O   UNL     1      47.855  19.522  21.477  0.00  0.00    -0.497 OA
ENDROOT
BRANCH   3   2
ATOM      1  C   UNL     1      45.486  20.628  19.653  0.00  0.00    +0.081 A 
ATOM      2  C   UNL     1      46.530  21.134  20.433  0.00  0.00    -0.102 A 
ATOM     19  C   UNL     1      46.391  22.374  21.061  0.00  0.00    +0.075 A 
ATOM     20  C   UNL     1      45.228  23.103  20.900  0.00  0.00    +0.085 A 
ATOM     23  C   UNL     1      44.190  22.597  20.122  0.00  0.00    +0.094 A 
ATOM     26  C   UNL     1      44.323  21.359  19.500  0.00  0.00    +0.087 A 
BRANCH  20  21
ATOM     21  O   UNL     1      45.095  24.314  21.506  0.00  0.00    -0.479 OA
ATOM     22  H   UNL     1      45.474  24.352  22.395  0.00  0.00    +0.392 HD
ENDBRANCH  20  21
BRANCH  23  24
ATOM     24  O   UNL     1      43.045  23.313  19.970  0.00  0.00    -0.473 OA
ATOM     25  H   UNL     1      42.953  23.729  19.102  0.00  0.00    +0.392 HD
ENDBRANCH  23  24
BRANCH  26  27
ATOM     27  O   UNL     1      43.308  20.868  18.740  0.00  0.00    -0.478 OA
ATOM     28  H   UNL     1      42.429  21.163  19.018  0.00  0.00    +0.393 HD
ENDBRANCH  26  27
ENDBRANCH   3   2
BRANCH   3   4
ATOM      4  O   UNL     1      48.816  20.572  19.773  0.00  0.00    -0.344 OA
BRANCH   4   5
ATOM      5  C   UNL     1      50.141  20.303  20.303  0.00  0.00    +0.270 C 
BRANCH   5   6
ATOM      6  C   UNL     1      51.022  19.718  19.198  0.00  0.00    +0.186 C 
ATOM      7  C   UNL     1      51.374  20.815  18.191  0.00  0.00    +0.173 C 
ATOM     10  C   UNL     1      52.206  20.208  17.056  0.00  0.00    +0.158 C 
ATOM     13  C   UNL     1      51.417  19.062  16.415  0.00  0.00    +0.116 C 
ATOM     16  C   UNL     1      51.063  18.032  17.492  0.00  0.00    +0.204 C 
ATOM     17  O   UNL     1      50.316  18.669  18.531  0.00  0.00    -0.355 OA
BRANCH   7   8
ATOM      8  O   UNL     1      52.129  21.838  18.842  0.00  0.00    -0.552 OA
ATOM      9  H   UNL     1      52.570  21.547  19.653  0.00  0.00    +0.396 HD
ENDBRANCH   7   8
BRANCH  10  11
ATOM     11  O   UNL     1      52.476  21.210  16.073  0.00  0.00    -0.560 OA
ATOM     12  H   UNL     1      53.418  21.380  15.934  0.00  0.00    +0.394 HD
ENDBRANCH  10  11
BRANCH  13  14
ATOM     14  O   UNL     1      52.212  18.441  15.404  0.00  0.00    -0.560 OA
ATOM     15  H   UNL     1      53.102  18.203  15.694  0.00  0.00    +0.389 HD
ENDBRANCH  13  14
ENDBRANCH   5   6
ENDBRANCH   4   5
ENDBRANCH   3   4
TORSDOF 10
ENDMDL
MODEL 7
REMARK VINA RESULT:      -5.7      1.451      6.969
REMARK  Name = ZINC14422042
REMARK  10 active torsions:
REMARK  status: ('A' for Active; 'I' for Inactive)
REMARK    1  A    between atoms: C2_2  and  C7_10
REMARK    2  A    between atoms: C4_4  and  O3_9
REMARK    3  A    between atoms: C5_5  and  O2_8
REMARK    4  A    between atoms: C6_6  and  O1_7
REMARK    5  A    between atoms: C7_10  and  O5_12
REMARK    6  A    between atoms: O5_12  and  C8_13
REMARK    7  A    between atoms: C8_13  and  C9_14
REMARK    8  A    between atoms: C10_16  and  O9_26
REMARK    9  A    between atoms: C11_18  and  O8_25
REMARK   10  A    between atoms: C12_20  and  O7_24
REMARK                            x       y       z     vdW  Elec       q    Type
REMARK                         _______ _______ _______ _____ _____    ______ ____
ROOT
ATOM      3  C   UNL     1      43.324  18.571  20.860  0.00  0.00    +0.515 C 
ATOM     18  O   UNL     1      42.644  18.003  21.690  0.00  0.00    -0.497 OA
ENDROOT
BRANCH   3   2
ATOM      1  C   UNL     1      43.516  20.919  20.058  0.00  0.00    +0.081 A 
ATOM      2  C   UNL     1      42.782  19.732  20.130  0.00  0.00    -0.102 A 
ATOM     19  C   UNL     1      41.535  19.646  19.504  0.00  0.00    +0.075 A 
ATOM     20  C   UNL     1      41.027  20.737  18.825  0.00  0.00    +0.085 A 
ATOM     23  C   UNL     1      41.761  21.918  18.755  0.00  0.00    +0.094 A 
ATOM     26  C   UNL     1      43.005  22.006  19.373  0.00  0.00    +0.087 A 
BRANCH  20  21
ATOM     21  O   UNL     1      39.811  20.656  18.220  0.00  0.00    -0.479 OA
ATOM     22  H   UNL     1      39.761  19.982  17.529  0.00  0.00    +0.392 HD
ENDBRANCH  20  21
BRANCH  23  24
ATOM     24  O   UNL     1      41.261  22.988  18.082  0.00  0.00    -0.473 OA
ATOM     25  H   UNL     1      41.938  23.563  17.699  0.00  0.00    +0.392 HD
ENDBRANCH  23  24
BRANCH  26  27
ATOM     27  O   UNL     1      43.719  23.161  19.303  0.00  0.00    -0.478 OA
ATOM     28  H   UNL     1      44.669  23.045  19.443  0.00  0.00    +0.393 HD
ENDBRANCH  26  27
ENDBRANCH   3   2
BRANCH   3   4
ATOM      4  O   UNL     1      44.577  18.142  20.607  0.00  0.00    -0.344 OA
BRANCH   4   5
ATOM      5  C   UNL     1      44.732  16.749  20.227  0.00  0.00    +0.270 C 
BRANCH   5   6
ATOM      6  C   UNL     1      46.036  16.575  19.447  0.00  0.00    +0.186 C 
ATOM      7  C   UNL     1      45.833  17.038  18.003  0.00  0.00    +0.173 C 
ATOM     10  C   UNL     1      47.125  16.804  17.213  0.00  0.00    +0.158 C 
ATOM     13  C   UNL     1      47.503  15.322  17.301  0.00  0.00    +0.116 C 
ATOM     16  C   UNL     1      47.641  14.926  18.773  0.00  0.00    +0.204 C 
ATOM     17  O   UNL     1      46.415  15.197  19.456  0.00  0.00    -0.355 OA
BRANCH   7   8
ATOM      8  O   UNL     1      45.509  18.429  17.988  0.00  0.00    -0.552 OA
ATOM      9  H   UNL     1      44.837  18.685  18.635  0.00  0.00    +0.396 HD
ENDBRANCH   7   8
BRANCH  10  11
ATOM     11  O   UNL     1      46.921  17.165  15.845  0.00  0.00    -0.560 OA
ATOM     12  H   UNL     1      46.311  16.583  15.372  0.00  0.00    +0.394 HD
ENDBRANCH  10  11
BRANCH  13  14
ATOM     14  O   UNL     1      48.745  15.105  16.629  0.00  0.00    -0.560 OA
ATOM     15  H   UNL     1      49.018  15.838  16.061  0.00  0.00    +0.389 HD
ENDBRANCH  13  14
ENDBRANCH   5   6
ENDBRANCH   4   5
ENDBRANCH   3   4
TORSDOF 10
ENDMDL
MODEL 8
REMARK VINA RESULT:      -5.6      1.126      7.349
REMARK  Name = ZINC14422042
REMARK  10 active torsions:
REMARK  status: ('A' for Active; 'I' for Inactive)
REMARK    1  A    between atoms: C2_2  and  C7_10
REMARK    2  A    between atoms: C4_4  and  O3_9
REMARK    3  A    between atoms: C5_5  and  O2_8
REMARK    4  A    between atoms: C6_6  and  O1_7
REMARK    5  A    between atoms: C7_10  and  O5_12
REMARK    6  A    between atoms: O5_12  and  C8_13
REMARK    7  A    between atoms: C8_13  and  C9_14
REMARK    8  A    between atoms: C10_16  and  O9_26
REMARK    9  A    between atoms: C11_18  and  O8_25
REMARK   10  A    between atoms: C12_20  and  O7_24
REMARK                            x       y       z     vdW  Elec       q    Type
REMARK                         _______ _______ _______ _____ _____    ______ ____
ROOT
ATOM      3  C   UNL     1      44.300  18.671  20.420  0.00  0.00    +0.515 C 
ATOM     18  O   UNL     1      43.908  17.984  21.341  0.00  0.00    -0.497 OA
ENDROOT
BRANCH   3   2
ATOM      1  C   UNL     1      42.307  19.376  19.109  0.00  0.00    +0.081 A 
ATOM      2  C   UNL     1      43.432  19.724  19.862  0.00  0.00    -0.102 A 
ATOM     19  C   UNL     1      43.728  21.070  20.089  0.00  0.00    +0.075 A 
ATOM     20  C   UNL     1      42.915  22.054  19.560  0.00  0.00    +0.085 A 
ATOM     23  C   UNL     1      41.795  21.706  18.810  0.00  0.00    +0.094 A 
ATOM     26  C   UNL     1      41.494  20.365  18.586  0.00  0.00    +0.087 A 
BRANCH  20  21
ATOM     21  O   UNL     1      43.206  23.366  19.776  0.00  0.00    -0.479 OA
ATOM     22  H   UNL     1      42.532  23.840  20.281  0.00  0.00    +0.392 HD
ENDBRANCH  20  21
BRANCH  23  24
ATOM     24  O   UNL     1      40.994  22.675  18.295  0.00  0.00    -0.473 OA
ATOM     25  H   UNL     1      41.394  23.171  17.567  0.00  0.00    +0.392 HD
ENDBRANCH  23  24
BRANCH  26  27
ATOM     27  O   UNL     1      40.400  20.027  17.853  0.00  0.00    -0.478 OA
ATOM     28  H   UNL     1      39.619  20.568  18.038  0.00  0.00    +0.393 HD
ENDBRANCH  26  27
ENDBRANCH   3   2
BRANCH   3   4
ATOM      4  O   UNL     1      45.531  18.471  19.907  0.00  0.00    -0.344 OA
BRANCH   4   5
ATOM      5  C   UNL     1      45.609  18.089  18.509  0.00  0.00    +0.270 C 
BRANCH   5   6
ATOM      6  C   UNL     1      46.329  16.745  18.386  0.00  0.00    +0.186 C 
ATOM      7  C   UNL     1      46.331  16.299  16.922  0.00  0.00    +0.173 C 
ATOM     10  C   UNL     1      46.999  14.924  16.817  0.00  0.00    +0.158 C 
ATOM     13  C   UNL     1      46.259  13.937  17.724  0.00  0.00    +0.116 C 
ATOM     16  C   UNL     1      46.260  14.475  19.158  0.00  0.00    +0.204 C 
ATOM     17  O   UNL     1      45.651  15.768  19.180  0.00  0.00    -0.355 OA
BRANCH   7   8
ATOM      8  O   UNL     1      47.056  17.245  16.135  0.00  0.00    -0.552 OA
ATOM      9  H   UNL     1      47.840  16.879  15.702  0.00  0.00    +0.396 HD
ENDBRANCH   7   8
BRANCH  10  11
ATOM     11  O   UNL     1      46.940  14.467  15.464  0.00  0.00    -0.560 OA
ATOM     12  H   UNL     1      46.180  13.901  15.273  0.00  0.00    +0.394 HD
ENDBRANCH  10  11
BRANCH  13  14
ATOM     14  O   UNL     1      46.917  12.670  17.690  0.00  0.00    -0.560 OA
ATOM     15  H   UNL     1      47.881  12.728  17.633  0.00  0.00    +0.389 HD
ENDBRANCH  13  14
ENDBRANCH   5   6
ENDBRANCH   4   5
ENDBRANCH   3   4
TORSDOF 10
ENDMDL
MODEL 9
REMARK VINA RESULT:      -5.4      0.813      2.552
REMARK  Name = ZINC14422042
REMARK  10 active torsions:
REMARK  status: ('A' for Active; 'I' for Inactive)
REMARK    1  A    between atoms: C2_2  and  C7_10
REMARK    2  A    between atoms: C4_4  and  O3_9
REMARK    3  A    between atoms: C5_5  and  O2_8
REMARK    4  A    between atoms: C6_6  and  O1_7
REMARK    5  A    between atoms: C7_10  and  O5_12
REMARK    6  A    between atoms: O5_12  and  C8_13
REMARK    7  A    between atoms: C8_13  and  C9_14
REMARK    8  A    between atoms: C10_16  and  O9_26
REMARK    9  A    between atoms: C11_18  and  O8_25
REMARK   10  A    between atoms: C12_20  and  O7_24
REMARK                            x       y       z     vdW  Elec       q    Type
REMARK                         _______ _______ _______ _____ _____    ______ ____
ROOT
ATOM      3  C   UNL     1      45.039  16.447  20.463  0.00  0.00    +0.515 C 
ATOM     18  O   UNL     1      45.234  15.858  21.507  0.00  0.00    -0.497 OA
ENDROOT
BRANCH   3   2
ATOM      1  C   UNL     1      45.691  14.538  19.005  0.00  0.00    +0.081 A 
ATOM      2  C   UNL     1      45.596  15.918  19.203  0.00  0.00    -0.102 A 
ATOM     19  C   UNL     1      46.023  16.796  18.203  0.00  0.00    +0.075 A 
ATOM     20  C   UNL     1      46.549  16.298  17.027  0.00  0.00    +0.085 A 
ATOM     23  C   UNL     1      46.644  14.922  16.832  0.00  0.00    +0.094 A 
ATOM     26  C   UNL     1      46.214  14.045  17.824  0.00  0.00    +0.087 A 
BRANCH  20  21
ATOM     21  O   UNL     1      46.971  17.152  16.055  0.00  0.00    -0.479 OA
ATOM     22  H   UNL     1      46.311  17.810  15.797  0.00  0.00    +0.392 HD
ENDBRANCH  20  21
BRANCH  23  24
ATOM     24  O   UNL     1      47.156  14.435  15.672  0.00  0.00    -0.473 OA
ATOM     25  H   UNL     1      47.272  13.475  15.665  0.00  0.00    +0.392 HD
ENDBRANCH  23  24
BRANCH  26  27
ATOM     27  O   UNL     1      46.308  12.702  17.631  0.00  0.00    -0.478 OA
ATOM     28  H   UNL     1      45.977  12.175  18.372  0.00  0.00    +0.393 HD
ENDBRANCH  26  27
ENDBRANCH   3   2
BRANCH   3   4
ATOM      4  O   UNL     1      44.313  17.582  20.454  0.00  0.00    -0.344 OA
BRANCH   4   5
ATOM      5  C   UNL     1      44.370  18.410  21.646  0.00  0.00    +0.270 C 
BRANCH   5   6
ATOM      6  C   UNL     1      43.861  19.814  21.317  0.00  0.00    +0.186 C 
ATOM      7  C   UNL     1      43.119  19.788  19.979  0.00  0.00    +0.173 C 
ATOM     10  C   UNL     1      42.666  21.209  19.627  0.00  0.00    +0.158 C 
ATOM     13  C   UNL     1      43.889  22.130  19.595  0.00  0.00    +0.116 C 
ATOM     16  C   UNL     1      44.601  22.066  20.949  0.00  0.00    +0.204 C 
ATOM     17  O   UNL     1      44.969  20.713  21.228  0.00  0.00    -0.355 OA
BRANCH   7   8
ATOM      8  O   UNL     1      41.978  18.934  20.081  0.00  0.00    -0.552 OA
ATOM      9  H   UNL     1      41.141  19.405  20.196  0.00  0.00    +0.396 HD
ENDBRANCH   7   8
BRANCH  10  11
ATOM     11  O   UNL     1      42.036  21.205  18.344  0.00  0.00    -0.560 OA
ATOM     12  H   UNL     1      41.387  20.498  18.226  0.00  0.00    +0.394 HD
ENDBRANCH  10  11
BRANCH  13  14
ATOM     14  O   UNL     1      43.469  23.472  19.340  0.00  0.00    -0.560 OA
ATOM     15  H   UNL     1      43.599  24.073  20.086  0.00  0.00    +0.389 HD
ENDBRANCH  13  14
ENDBRANCH   5   6
ENDBRANCH   4   5
ENDBRANCH   3   4
TORSDOF 10
ENDMDL
