MODEL 1
REMARK VINA RESULT:      -6.0      0.000      0.000
REMARK  Name = ZINC95485884
REMARK  8 active torsions:
REMARK  status: ('A' for Active; 'I' for Inactive)
REMARK    1  A    between atoms: C1_1  and  C2_2
REMARK    2  A    between atoms: C4_4  and  C18_23
REMARK    3  A    between atoms: C4_4  and  C19_24
REMARK    4  A    between atoms: C6_6  and  C8_9
REMARK    5  A    between atoms: C8_9  and  C9_10
REMARK    6  A    between atoms: C11_12  and  C16_19
REMARK    7  A    between atoms: C11_12  and  C17_20
REMARK    8  A    between atoms: C13_14  and  C15_17
REMARK                            x       y       z     vdW  Elec       q    Type
REMARK                         _______ _______ _______ _____ _____    ______ ____
ROOT
ATOM     11  C   UNL     1      47.391  19.002  18.318  0.00  0.00    +0.109 C 
ENDROOT
BRANCH  11  10
ATOM      1  C   UNL     1      51.625  16.745  17.143  0.00  0.00    +0.083 C 
ATOM      2  C   UNL     1      50.996  17.525  18.300  0.00  0.00    -0.041 C 
ATOM      3  C   UNL     1      51.666  18.876  18.431  0.00  0.00    +0.378 C 
ATOM      4  O   UNL     1      52.674  19.131  17.816  0.00  0.00    -0.407 OA
ATOM      5  C   UNL     1      51.038  19.900  19.351  0.00  0.00    -0.158 C 
ATOM      6  C   UNL     1      51.705  21.261  19.142  0.00  0.00    +0.087 C 
ATOM      7  C   UNL     1      51.206  19.460  20.807  0.00  0.00    +0.100 C 
ATOM      8  C   UNL     1      49.565  19.995  19.013  0.00  0.00    +0.381 C 
ATOM      9  O   UNL     1      49.040  21.067  18.825  0.00  0.00    -0.414 OA
ATOM     10  C   UNL     1      48.768  18.711  18.918  0.00  0.00    -0.036 C 
ATOM     24  C   UNL     1      49.526  17.755  18.021  0.00  0.00    +0.380 C 
ATOM     25  O   UNL     1      48.972  17.190  17.108  0.00  0.00    -0.407 OA
ENDBRANCH  11  10
BRANCH  11  12
ATOM     12  C   UNL     1      46.344  19.031  19.433  0.00  0.00    -0.036 C 
ATOM     13  C   UNL     1      45.488  20.273  19.300  0.00  0.00    +0.383 C 
ATOM     14  O   UNL     1      45.793  21.156  18.535  0.00  0.00    -0.405 OA
ATOM     15  C   UNL     1      44.241  20.379  20.151  0.00  0.00    -0.156 C 
ATOM     16  C   UNL     1      44.631  20.569  21.619  0.00  0.00    +0.099 C 
ATOM     17  C   UNL     1      43.394  21.563  19.683  0.00  0.00    +0.087 C 
ATOM     18  C   UNL     1      43.456  19.094  19.993  0.00  0.00    +0.380 C 
ATOM     19  O   UNL     1      42.276  19.117  19.735  0.00  0.00    -0.411 OA
ATOM     20  C   UNL     1      44.188  17.780  20.168  0.00  0.00    -0.054 C 
ATOM     21  C   UNL     1      44.570  17.593  21.639  0.00  0.00    +0.098 C 
ATOM     22  C   UNL     1      45.438  17.823  19.316  0.00  0.00    +0.378 C 
ATOM     23  O   UNL     1      45.705  16.918  18.562  0.00  0.00    -0.417 OA
ENDBRANCH  11  12
TORSDOF 2
ENDMDL
MODEL 2
REMARK VINA RESULT:      -6.0      1.801      3.173
REMARK  Name = ZINC95485884
REMARK  8 active torsions:
REMARK  status: ('A' for Active; 'I' for Inactive)
REMARK    1  A    between atoms: C1_1  and  C2_2
REMARK    2  A    between atoms: C4_4  and  C18_23
REMARK    3  A    between atoms: C4_4  and  C19_24
REMARK    4  A    between atoms: C6_6  and  C8_9
REMARK    5  A    between atoms: C8_9  and  C9_10
REMARK    6  A    between atoms: C11_12  and  C16_19
REMARK    7  A    between atoms: C11_12  and  C17_20
REMARK    8  A    between atoms: C13_14  and  C15_17
REMARK                            x       y       z     vdW  Elec       q    Type
REMARK                         _______ _______ _______ _____ _____    ______ ____
ROOT
ATOM     11  C   UNL     1      48.337  19.464  19.736  0.00  0.00    +0.109 C 
ENDROOT
BRANCH  11  10
ATOM      1  C   UNL     1      52.655  21.583  20.866  0.00  0.00    +0.083 C 
ATOM      2  C   UNL     1      51.682  21.462  19.691  0.00  0.00    -0.041 C 
ATOM      3  C   UNL     1      52.299  20.614  18.600  0.00  0.00    +0.378 C 
ATOM      4  O   UNL     1      53.464  20.300  18.643  0.00  0.00    -0.407 OA
ATOM      5  C   UNL     1      51.416  20.167  17.455  0.00  0.00    -0.158 C 
ATOM      6  C   UNL     1      52.150  19.120  16.614  0.00  0.00    +0.087 C 
ATOM      7  C   UNL     1      51.054  21.370  16.582  0.00  0.00    +0.100 C 
ATOM      8  C   UNL     1      50.157  19.563  18.040  0.00  0.00    +0.381 C 
ATOM      9  O   UNL     1      49.759  18.483  17.672  0.00  0.00    -0.414 OA
ATOM     10  C   UNL     1      49.410  20.349  19.097  0.00  0.00    -0.036 C 
ATOM     24  C   UNL     1      50.408  20.785  20.150  0.00  0.00    +0.380 C 
ATOM     25  O   UNL     1      50.193  20.597  21.323  0.00  0.00    -0.407 OA
ENDBRANCH  11  10
BRANCH  11  12
ATOM     12  C   UNL     1      47.147  20.329  20.156  0.00  0.00    -0.036 C 
ATOM     13  C   UNL     1      45.979  20.077  19.227  0.00  0.00    +0.383 C 
ATOM     14  O   UNL     1      46.121  19.440  18.211  0.00  0.00    -0.405 OA
ATOM     15  C   UNL     1      44.627  20.644  19.605  0.00  0.00    -0.156 C 
ATOM     16  C   UNL     1      44.652  22.169  19.476  0.00  0.00    +0.099 C 
ATOM     17  C   UNL     1      43.548  20.065  18.688  0.00  0.00    +0.087 C 
ATOM     18  C   UNL     1      44.341  20.258  21.041  0.00  0.00    +0.380 C 
ATOM     19  O   UNL     1      43.288  19.754  21.348  0.00  0.00    -0.411 OA
ATOM     20  C   UNL     1      45.410  20.520  22.080  0.00  0.00    -0.054 C 
ATOM     21  C   UNL     1      45.549  22.027  22.310  0.00  0.00    +0.098 C 
ATOM     22  C   UNL     1      46.717  19.960  21.560  0.00  0.00    +0.378 C 
ATOM     23  O   UNL     1      47.398  19.237  22.248  0.00  0.00    -0.417 OA
ENDBRANCH  11  12
TORSDOF 2
ENDMDL
MODEL 3
REMARK VINA RESULT:      -5.8      2.736      6.746
REMARK  Name = ZINC95485884
REMARK  8 active torsions:
REMARK  status: ('A' for Active; 'I' for Inactive)
REMARK    1  A    between atoms: C1_1  and  C2_2
REMARK    2  A    between atoms: C4_4  and  C18_23
REMARK    3  A    between atoms: C4_4  and  C19_24
REMARK    4  A    between atoms: C6_6  and  C8_9
REMARK    5  A    between atoms: C8_9  and  C9_10
REMARK    6  A    between atoms: C11_12  and  C16_19
REMARK    7  A    between atoms: C11_12  and  C17_20
REMARK    8  A    between atoms: C13_14  and  C15_17
REMARK                            x       y       z     vdW  Elec       q    Type
REMARK                         _______ _______ _______ _____ _____    ______ ____
ROOT
ATOM     11  C   UNL     1      47.684  17.647  18.297  0.00  0.00    +0.109 C 
ENDROOT
BRANCH  11  10
ATOM      1  C   UNL     1      45.033  15.144  21.631  0.00  0.00    +0.083 C 
ATOM      2  C   UNL     1      46.238  14.950  20.708  0.00  0.00    -0.041 C 
ATOM      3  C   UNL     1      45.879  13.990  19.593  0.00  0.00    +0.378 C 
ATOM      4  O   UNL     1      44.850  13.359  19.626  0.00  0.00    -0.407 OA
ATOM      5  C   UNL     1      46.843  13.845  18.435  0.00  0.00    -0.158 C 
ATOM      6  C   UNL     1      46.183  13.045  17.310  0.00  0.00    +0.087 C 
ATOM      7  C   UNL     1      48.110  13.129  18.905  0.00  0.00    +0.100 C 
ATOM      8  C   UNL     1      47.194  15.232  17.940  0.00  0.00    +0.381 C 
ATOM      9  O   UNL     1      47.125  15.506  16.764  0.00  0.00    -0.414 OA
ATOM     10  C   UNL     1      47.633  16.266  18.955  0.00  0.00    -0.036 C 
ATOM     24  C   UNL     1      46.623  16.274  20.083  0.00  0.00    +0.380 C 
ATOM     25  O   UNL     1      46.137  17.308  20.474  0.00  0.00    -0.407 OA
ENDBRANCH  11  10
BRANCH  11  12
ATOM     12  C   UNL     1      48.998  18.339  18.664  0.00  0.00    -0.036 C 
ATOM     13  C   UNL     1      49.962  18.256  17.500  0.00  0.00    +0.383 C 
ATOM     14  O   UNL     1      49.727  17.548  16.551  0.00  0.00    -0.405 OA
ATOM     15  C   UNL     1      51.229  19.083  17.559  0.00  0.00    -0.156 C 
ATOM     16  C   UNL     1      52.167  18.518  18.628  0.00  0.00    +0.099 C 
ATOM     17  C   UNL     1      51.924  19.061  16.196  0.00  0.00    +0.087 C 
ATOM     18  C   UNL     1      50.845  20.504  17.915  0.00  0.00    +0.380 C 
ATOM     19  O   UNL     1      51.255  21.437  17.267  0.00  0.00    -0.411 OA
ATOM     20  C   UNL     1      49.934  20.723  19.104  0.00  0.00    -0.054 C 
ATOM     21  C   UNL     1      50.684  20.396  20.397  0.00  0.00    +0.098 C 
ATOM     22  C   UNL     1      48.741  19.802  18.957  0.00  0.00    +0.378 C 
ATOM     23  O   UNL     1      47.615  20.224  19.069  0.00  0.00    -0.417 OA
ENDBRANCH  11  12
TORSDOF 2
ENDMDL
MODEL 4
REMARK VINA RESULT:      -5.5      1.516      6.716
REMARK  Name = ZINC95485884
REMARK  8 active torsions:
REMARK  status: ('A' for Active; 'I' for Inactive)
REMARK    1  A    between atoms: C1_1  and  C2_2
REMARK    2  A    between atoms: C4_4  and  C18_23
REMARK    3  A    between atoms: C4_4  and  C19_24
REMARK    4  A    between atoms: C6_6  and  C8_9
REMARK    5  A    between atoms: C8_9  and  C9_10
REMARK    6  A    between atoms: C11_12  and  C16_19
REMARK    7  A    between atoms: C11_12  and  C17_20
REMARK    8  A    between atoms: C13_14  and  C15_17
REMARK                            x       y       z     vdW  Elec       q    Type
REMARK                         _______ _______ _______ _____ _____    ______ ____
ROOT
ATOM     11  C   UNL     1      48.121  18.975  20.670  0.00  0.00    +0.109 C 
ENDROOT
BRANCH  11  10
ATOM      1  C   UNL     1      43.853  16.851  21.967  0.00  0.00    +0.083 C 
ATOM      2  C   UNL     1      44.444  17.698  20.837  0.00  0.00    -0.041 C 
ATOM      3  C   UNL     1      43.849  19.089  20.876  0.00  0.00    +0.378 C 
ATOM      4  O   UNL     1      42.905  19.341  21.585  0.00  0.00    -0.407 OA
ATOM      5  C   UNL     1      44.470  20.158  20.001  0.00  0.00    -0.158 C 
ATOM      6  C   UNL     1      43.902  21.528  20.378  0.00  0.00    +0.087 C 
ATOM      7  C   UNL     1      44.171  19.861  18.531  0.00  0.00    +0.100 C 
ATOM      8  C   UNL     1      45.966  20.142  20.232  0.00  0.00    +0.381 C 
ATOM      9  O   UNL     1      46.567  21.163  20.472  0.00  0.00    -0.414 OA
ATOM     10  C   UNL     1      46.689  18.814  20.155  0.00  0.00    -0.036 C 
ATOM     24  C   UNL     1      45.941  17.822  21.021  0.00  0.00    +0.380 C 
ATOM     25  O   UNL     1      46.525  17.148  21.836  0.00  0.00    -0.407 OA
ENDBRANCH  11  10
BRANCH  11  12
ATOM     12  C   UNL     1      49.070  19.169  19.486  0.00  0.00    -0.036 C 
ATOM     13  C   UNL     1      50.128  20.192  19.841  0.00  0.00    +0.383 C 
ATOM     14  O   UNL     1      50.032  20.860  20.842  0.00  0.00    -0.405 OA
ATOM     15  C   UNL     1      51.307  20.358  18.907  0.00  0.00    -0.156 C 
ATOM     16  C   UNL     1      50.845  21.002  17.598  0.00  0.00    +0.099 C 
ATOM     17  C   UNL     1      52.372  21.235  19.567  0.00  0.00    +0.087 C 
ATOM     18  C   UNL     1      51.878  18.984  18.625  0.00  0.00    +0.380 C 
ATOM     19  O   UNL     1      53.062  18.770  18.739  0.00  0.00    -0.411 OA
ATOM     20  C   UNL     1      50.927  17.886  18.197  0.00  0.00    -0.054 C 
ATOM     21  C   UNL     1      50.409  18.172  16.786  0.00  0.00    +0.098 C 
ATOM     22  C   UNL     1      49.770  17.862  19.172  0.00  0.00    +0.378 C 
ATOM     23  O   UNL     1      49.414  16.829  19.686  0.00  0.00    -0.417 OA
ENDBRANCH  11  12
TORSDOF 2
ENDMDL
MODEL 5
REMARK VINA RESULT:      -5.5      2.968      6.673
REMARK  Name = ZINC95485884
REMARK  8 active torsions:
REMARK  status: ('A' for Active; 'I' for Inactive)
REMARK    1  A    between atoms: C1_1  and  C2_2
REMARK    2  A    between atoms: C4_4  and  C18_23
REMARK    3  A    between atoms: C4_4  and  C19_24
REMARK    4  A    between atoms: C6_6  and  C8_9
REMARK    5  A    between atoms: C8_9  and  C9_10
REMARK    6  A    between atoms: C11_12  and  C16_19
REMARK    7  A    between atoms: C11_12  and  C17_20
REMARK    8  A    between atoms: C13_14  and  C15_17
REMARK                            x       y       z     vdW  Elec       q    Type
REMARK                         _______ _______ _______ _____ _____    ______ ____
ROOT
ATOM     11  C   UNL     1      49.676  16.638  18.923  0.00  0.00    +0.109 C 
ENDROOT
BRANCH  11  10
ATOM      1  C   UNL     1      46.646  13.568  16.514  0.00  0.00    +0.083 C 
ATOM      2  C   UNL     1      46.589  14.822  17.390  0.00  0.00    -0.041 C 
ATOM      3  C   UNL     1      45.986  14.479  18.736  0.00  0.00    +0.378 C 
ATOM      4  O   UNL     1      45.464  13.408  18.926  0.00  0.00    -0.407 OA
ATOM      5  C   UNL     1      46.059  15.515  19.837  0.00  0.00    -0.158 C 
ATOM      6  C   UNL     1      45.639  14.885  21.167  0.00  0.00    +0.087 C 
ATOM      7  C   UNL     1      45.135  16.688  19.506  0.00  0.00    +0.100 C 
ATOM      8  C   UNL     1      47.490  16.002  19.930  0.00  0.00    +0.381 C 
ATOM      9  O   UNL     1      48.063  16.043  20.993  0.00  0.00    -0.414 OA
ATOM     10  C   UNL     1      48.183  16.437  18.656  0.00  0.00    -0.036 C 
ATOM     24  C   UNL     1      47.989  15.348  17.622  0.00  0.00    +0.380 C 
ATOM     25  O   UNL     1      48.927  14.911  16.999  0.00  0.00    -0.407 OA
ENDBRANCH  11  10
BRANCH  11  12
ATOM     12  C   UNL     1      50.122  17.980  18.341  0.00  0.00    -0.036 C 
ATOM     13  C   UNL     1      50.279  18.994  19.454  0.00  0.00    +0.383 C 
ATOM     14  O   UNL     1      49.883  18.755  20.569  0.00  0.00    -0.405 OA
ATOM     15  C   UNL     1      50.944  20.315  19.132  0.00  0.00    -0.156 C 
ATOM     16  C   UNL     1      50.027  21.151  18.236  0.00  0.00    +0.099 C 
ATOM     17  C   UNL     1      51.237  21.076  20.426  0.00  0.00    +0.087 C 
ATOM     18  C   UNL     1      52.240  20.023  18.405  0.00  0.00    +0.380 C 
ATOM     19  O   UNL     1      53.276  20.536  18.756  0.00  0.00    -0.411 OA
ATOM     20  C   UNL     1      52.202  19.071  17.228  0.00  0.00    -0.054 C 
ATOM     21  C   UNL     1      51.468  19.727  16.056  0.00  0.00    +0.098 C 
ATOM     22  C   UNL     1      51.465  17.821  17.659  0.00  0.00    +0.378 C 
ATOM     23  O   UNL     1      51.937  16.726  17.466  0.00  0.00    -0.417 OA
ENDBRANCH  11  12
TORSDOF 2
ENDMDL
MODEL 6
REMARK VINA RESULT:      -5.3      3.180      5.140
REMARK  Name = ZINC95485884
REMARK  8 active torsions:
REMARK  status: ('A' for Active; 'I' for Inactive)
REMARK    1  A    between atoms: C1_1  and  C2_2
REMARK    2  A    between atoms: C4_4  and  C18_23
REMARK    3  A    between atoms: C4_4  and  C19_24
REMARK    4  A    between atoms: C6_6  and  C8_9
REMARK    5  A    between atoms: C8_9  and  C9_10
REMARK    6  A    between atoms: C11_12  and  C16_19
REMARK    7  A    between atoms: C11_12  and  C17_20
REMARK    8  A    between atoms: C13_14  and  C15_17
REMARK                            x       y       z     vdW  Elec       q    Type
REMARK                         _______ _______ _______ _____ _____    ______ ____
ROOT
ATOM     11  C   UNL     1      48.680  16.509  17.409  0.00  0.00    +0.109 C 
ENDROOT
BRANCH  11  10
ATOM      1  C   UNL     1      52.214  19.863  16.590  0.00  0.00    +0.083 C 
ATOM      2  C   UNL     1      51.438  19.240  17.752  0.00  0.00    -0.041 C 
ATOM      3  C   UNL     1      50.499  20.266  18.350  0.00  0.00    +0.378 C 
ATOM      4  O   UNL     1      50.571  21.430  18.036  0.00  0.00    -0.407 OA
ATOM      5  C   UNL     1      49.466  19.794  19.351  0.00  0.00    -0.158 C 
ATOM      6  C   UNL     1      48.465  20.917  19.629  0.00  0.00    +0.087 C 
ATOM      7  C   UNL     1      50.157  19.383  20.652  0.00  0.00    +0.100 C 
ATOM      8  C   UNL     1      48.747  18.602  18.756  0.00  0.00    +0.381 C 
ATOM      9  O   UNL     1      47.539  18.551  18.740  0.00  0.00    -0.414 OA
ATOM     10  C   UNL     1      49.580  17.475  18.183  0.00  0.00    -0.036 C 
ATOM     24  C   UNL     1      50.607  18.079  17.248  0.00  0.00    +0.380 C 
ATOM     25  O   UNL     1      50.758  17.647  16.130  0.00  0.00    -0.407 OA
ENDBRANCH  11  10
BRANCH  11  12
ATOM     12  C   UNL     1      48.535  15.205  18.196  0.00  0.00    -0.036 C 
ATOM     13  C   UNL     1      47.069  14.872  18.368  0.00  0.00    +0.383 C 
ATOM     14  O   UNL     1      46.214  15.677  18.086  0.00  0.00    -0.405 OA
ATOM     15  C   UNL     1      46.703  13.505  18.904  0.00  0.00    -0.156 C 
ATOM     16  C   UNL     1      47.099  13.403  20.378  0.00  0.00    +0.099 C 
ATOM     17  C   UNL     1      45.197  13.277  18.756  0.00  0.00    +0.087 C 
ATOM     18  C   UNL     1      47.459  12.468  18.099  0.00  0.00    +0.380 C 
ATOM     19  O   UNL     1      46.887  11.517  17.622  0.00  0.00    -0.411 OA
ATOM     20  C   UNL     1      48.949  12.655  17.910  0.00  0.00    -0.054 C 
ATOM     21  C   UNL     1      49.671  12.431  19.241  0.00  0.00    +0.098 C 
ATOM     22  C   UNL     1      49.187  14.072  17.431  0.00  0.00    +0.378 C 
ATOM     23  O   UNL     1      49.877  14.291  16.465  0.00  0.00    -0.417 OA
ENDBRANCH  11  12
TORSDOF 2
ENDMDL
MODEL 7
REMARK VINA RESULT:      -5.2      3.847      6.637
REMARK  Name = ZINC95485884
REMARK  8 active torsions:
REMARK  status: ('A' for Active; 'I' for Inactive)
REMARK    1  A    between atoms: C1_1  and  C2_2
REMARK    2  A    between atoms: C4_4  and  C18_23
REMARK    3  A    between atoms: C4_4  and  C19_24
REMARK    4  A    between atoms: C6_6  and  C8_9
REMARK    5  A    between atoms: C8_9  and  C9_10
REMARK    6  A    between atoms: C11_12  and  C16_19
REMARK    7  A    between atoms: C11_12  and  C17_20
REMARK    8  A    between atoms: C13_14  and  C15_17
REMARK                            x       y       z     vdW  Elec       q    Type
REMARK                         _______ _______ _______ _____ _____    ______ ____
ROOT
ATOM     11  C   UNL     1      50.363  16.372  18.883  0.00  0.00    +0.109 C 
ENDROOT
BRANCH  11  10
ATOM      1  C   UNL     1      50.222  12.495  15.824  0.00  0.00    +0.083 C 
ATOM      2  C   UNL     1      49.391  13.727  16.193  0.00  0.00    -0.041 C 
ATOM      3  C   UNL     1      48.132  13.297  16.915  0.00  0.00    +0.378 C 
ATOM      4  O   UNL     1      47.809  12.135  16.960  0.00  0.00    -0.407 OA
ATOM      5  C   UNL     1      47.289  14.364  17.581  0.00  0.00    -0.158 C 
ATOM      6  C   UNL     1      46.226  13.707  18.463  0.00  0.00    +0.087 C 
ATOM      7  C   UNL     1      46.615  15.230  16.516  0.00  0.00    +0.100 C 
ATOM      8  C   UNL     1      48.203  15.220  18.433  0.00  0.00    +0.381 C 
ATOM      9  O   UNL     1      47.930  15.462  19.585  0.00  0.00    -0.414 OA
ATOM     10  C   UNL     1      49.466  15.766  17.801  0.00  0.00    -0.036 C 
ATOM     24  C   UNL     1      50.185  14.619  17.123  0.00  0.00    +0.380 C 
ATOM     25  O   UNL     1      51.361  14.421  17.319  0.00  0.00    -0.407 OA
ENDBRANCH  11  10
BRANCH  11  12
ATOM     12  C   UNL     1      50.610  17.850  18.572  0.00  0.00    -0.036 C 
ATOM     13  C   UNL     1      50.113  18.704  19.719  0.00  0.00    +0.383 C 
ATOM     14  O   UNL     1      49.444  18.225  20.603  0.00  0.00    -0.405 OA
ATOM     15  C   UNL     1      50.476  20.173  19.728  0.00  0.00    -0.156 C 
ATOM     16  C   UNL     1      49.728  20.898  18.608  0.00  0.00    +0.099 C 
ATOM     17  C   UNL     1      50.108  20.789  21.080  0.00  0.00    +0.087 C 
ATOM     18  C   UNL     1      51.969  20.288  19.503  0.00  0.00    +0.380 C 
ATOM     19  O   UNL     1      52.655  20.968  20.230  0.00  0.00    -0.411 OA
ATOM     20  C   UNL     1      52.580  19.530  18.343  0.00  0.00    -0.054 C 
ATOM     21  C   UNL     1      52.136  20.162  17.022  0.00  0.00    +0.098 C 
ATOM     22  C   UNL     1      52.096  18.097  18.413  0.00  0.00    +0.378 C 
ATOM     23  O   UNL     1      52.875  17.177  18.345  0.00  0.00    -0.417 OA
ENDBRANCH  11  12
TORSDOF 2
ENDMDL
MODEL 8
REMARK VINA RESULT:      -5.2      2.200      6.420
REMARK  Name = ZINC95485884
REMARK  8 active torsions:
REMARK  status: ('A' for Active; 'I' for Inactive)
REMARK    1  A    between atoms: C1_1  and  C2_2
REMARK    2  A    between atoms: C4_4  and  C18_23
REMARK    3  A    between atoms: C4_4  and  C19_24
REMARK    4  A    between atoms: C6_6  and  C8_9
REMARK    5  A    between atoms: C8_9  and  C9_10
REMARK    6  A    between atoms: C11_12  and  C16_19
REMARK    7  A    between atoms: C11_12  and  C17_20
REMARK    8  A    between atoms: C13_14  and  C15_17
REMARK                            x       y       z     vdW  Elec       q    Type
REMARK                         _______ _______ _______ _____ _____    ______ ____
ROOT
ATOM     11  C   UNL     1      47.059  18.970  18.444  0.00  0.00    +0.109 C 
ENDROOT
BRANCH  11  10
ATOM      1  C   UNL     1      46.808  22.773  21.588  0.00  0.00    +0.083 C 
ATOM      2  C   UNL     1      46.110  21.441  21.303  0.00  0.00    -0.041 C 
ATOM      3  C   UNL     1      44.718  21.699  20.765  0.00  0.00    +0.378 C 
ATOM      4  O   UNL     1      44.238  22.806  20.791  0.00  0.00    -0.407 OA
ATOM      5  C   UNL     1      43.946  20.530  20.191  0.00  0.00    -0.158 C 
ATOM      6  C   UNL     1      42.694  21.041  19.474  0.00  0.00    +0.087 C 
ATOM      7  C   UNL     1      43.544  19.574  21.315  0.00  0.00    +0.100 C 
ATOM      8  C   UNL     1      44.843  19.812  19.205  0.00  0.00    +0.381 C 
ATOM      9  O   UNL     1      44.453  19.542  18.094  0.00  0.00    -0.414 OA
ATOM     10  C   UNL     1      46.242  19.441  19.650  0.00  0.00    -0.036 C 
ATOM     24  C   UNL     1      46.884  20.672  20.254  0.00  0.00    +0.380 C 
ATOM     25  O   UNL     1      47.985  21.030  19.909  0.00  0.00    -0.407 OA
ENDBRANCH  11  10
BRANCH  11  12
ATOM     12  C   UNL     1      47.655  17.592  18.739  0.00  0.00    -0.036 C 
ATOM     13  C   UNL     1      47.058  16.565  17.799  0.00  0.00    +0.383 C 
ATOM     14  O   UNL     1      46.109  16.839  17.105  0.00  0.00    -0.405 OA
ATOM     15  C   UNL     1      47.682  15.187  17.754  0.00  0.00    -0.156 C 
ATOM     16  C   UNL     1      47.393  14.445  19.061  0.00  0.00    +0.099 C 
ATOM     17  C   UNL     1      47.111  14.399  16.574  0.00  0.00    +0.087 C 
ATOM     18  C   UNL     1      49.177  15.355  17.582  0.00  0.00    +0.380 C 
ATOM     19  O   UNL     1      49.775  14.743  16.729  0.00  0.00    -0.411 OA
ATOM     20  C   UNL     1      49.903  16.308  18.508  0.00  0.00    -0.054 C 
ATOM     21  C   UNL     1      49.936  15.729  19.924  0.00  0.00    +0.098 C 
ATOM     22  C   UNL     1      49.152  17.622  18.510  0.00  0.00    +0.378 C 
ATOM     23  O   UNL     1      49.731  18.667  18.333  0.00  0.00    -0.417 OA
ENDBRANCH  11  12
TORSDOF 2
ENDMDL
MODEL 9
REMARK VINA RESULT:      -5.1      0.750      7.011
REMARK  Name = ZINC95485884
REMARK  8 active torsions:
REMARK  status: ('A' for Active; 'I' for Inactive)
REMARK    1  A    between atoms: C1_1  and  C2_2
REMARK    2  A    between atoms: C4_4  and  C18_23
REMARK    3  A    between atoms: C4_4  and  C19_24
REMARK    4  A    between atoms: C6_6  and  C8_9
REMARK    5  A    between atoms: C8_9  and  C9_10
REMARK    6  A    between atoms: C11_12  and  C16_19
REMARK    7  A    between atoms: C11_12  and  C17_20
REMARK    8  A    between atoms: C13_14  and  C15_17
REMARK                            x       y       z     vdW  Elec       q    Type
REMARK                         _______ _______ _______ _____ _____    ______ ____
ROOT
ATOM     11  C   UNL     1      47.432  19.177  18.497  0.00  0.00    +0.109 C 
ENDROOT
BRANCH  11  10
ATOM      1  C   UNL     1      43.672  22.038  19.940  0.00  0.00    +0.083 C 
ATOM      2  C   UNL     1      44.623  20.981  20.506  0.00  0.00    -0.041 C 
ATOM      3  C   UNL     1      43.859  19.706  20.791  0.00  0.00    +0.378 C 
ATOM      4  O   UNL     1      42.653  19.684  20.751  0.00  0.00    -0.407 OA
ATOM      5  C   UNL     1      44.648  18.458  21.127  0.00  0.00    -0.158 C 
ATOM      6  C   UNL     1      43.720  17.242  21.120  0.00  0.00    +0.087 C 
ATOM      7  C   UNL     1      45.293  18.610  22.505  0.00  0.00    +0.100 C 
ATOM      8  C   UNL     1      45.724  18.286  20.075  0.00  0.00    +0.381 C 
ATOM      9  O   UNL     1      45.879  17.228  19.514  0.00  0.00    -0.414 OA
ATOM     10  C   UNL     1      46.601  19.477  19.747  0.00  0.00    -0.036 C 
ATOM     24  C   UNL     1      45.700  20.666  19.490  0.00  0.00    +0.380 C 
ATOM     25  O   UNL     1      45.837  21.345  18.500  0.00  0.00    -0.407 OA
ENDBRANCH  11  10
BRANCH  11  12
ATOM     12  C   UNL     1      48.886  18.925  18.899  0.00  0.00    -0.036 C 
ATOM     13  C   UNL     1      49.505  17.903  17.969  0.00  0.00    +0.383 C 
ATOM     14  O   UNL     1      48.822  17.277  17.195  0.00  0.00    -0.405 OA
ATOM     15  C   UNL     1      51.001  17.687  18.035  0.00  0.00    -0.156 C 
ATOM     16  C   UNL     1      51.367  16.997  19.351  0.00  0.00    +0.099 C 
ATOM     17  C   UNL     1      51.452  16.824  16.855  0.00  0.00    +0.087 C 
ATOM     18  C   UNL     1      51.674  19.042  17.965  0.00  0.00    +0.380 C 
ATOM     19  O   UNL     1      52.576  19.246  17.187  0.00  0.00    -0.411 OA
ATOM     20  C   UNL     1      51.187  20.133  18.895  0.00  0.00    -0.054 C 
ATOM     21  C   UNL     1      51.580  19.798  20.336  0.00  0.00    +0.098 C 
ATOM     22  C   UNL     1      49.680  20.209  18.779  0.00  0.00    +0.378 C 
ATOM     23  O   UNL     1      49.125  21.266  18.595  0.00  0.00    -0.417 OA
ENDBRANCH  11  12
TORSDOF 2
ENDMDL
