MODEL 1
REMARK VINA RESULT:      -6.4      0.000      0.000
REMARK  Name = ZINC95486218
REMARK  11 active torsions:
REMARK  status: ('A' for Active; 'I' for Inactive)
REMARK    1  A    between atoms: C1_1  and  C2_2
REMARK    2  A    between atoms: C8_8  and  O4_29
REMARK    3  A    between atoms: C10_10  and  O3_28
REMARK    4  A    between atoms: C11_11  and  C12_12
REMARK    5  A    between atoms: C13_13  and  O2_26
REMARK    6  A    between atoms: C17_17  and  C23_25
REMARK    7  A    between atoms: C18_19  and  C22_24
REMARK    8  A    between atoms: C20_21  and  O1_22
REMARK    9  A    between atoms: O1_22  and  C21_23
REMARK   10  A    between atoms: O2_26  and  C24_27
REMARK   11  A    between atoms: O4_29  and  C25_30
REMARK                            x       y       z     vdW  Elec       q    Type
REMARK                         _______ _______ _______ _____ _____    ______ ____
ROOT
ATOM     16  C   UNL     1      46.919  19.638  20.217  0.00  0.00    -0.086 A 
ATOM     17  C   UNL     1      47.522  20.768  20.800  0.00  0.00    +0.181 A 
ATOM     20  C   UNL     1      48.793  21.136  20.461  0.00  0.00    -0.091 A 
ATOM     21  C   UNL     1      49.512  20.384  19.523  0.00  0.00    +0.039 A 
ATOM     22  C   UNL     1      50.824  20.725  19.144  0.00  0.00    -0.048 A 
ATOM     23  C   UNL     1      51.462  19.948  18.227  0.00  0.00    +0.132 A 
ATOM     24  C   UNL     1      52.867  20.305  17.814  0.00  0.00    +0.125 C 
ATOM     25  N   UNL     1      50.883  18.884  17.685  0.00  0.00    -0.501 NA
ATOM     26  C   UNL     1      49.663  18.508  17.991  0.00  0.00    +0.205 A 
ATOM     27  C   UNL     1      49.064  17.288  17.339  0.00  0.00    +0.141 C 
ATOM     28  C   UNL     1      48.918  19.240  18.927  0.00  0.00    -0.162 A 
ATOM     29  C   UNL     1      47.609  18.870  19.289  0.00  0.00    +0.192 A 
ENDROOT
BRANCH  16  15
ATOM      1  C   UNL     1      46.521  17.649  22.264  0.00  0.00    +0.092 C 
ATOM      2  C   UNL     1      45.333  18.293  21.597  0.00  0.00    -0.036 A 
ATOM      3  C   UNL     1      44.077  17.933  21.972  0.00  0.00    +0.002 A 
ATOM      4  C   UNL     1      42.960  18.527  21.358  0.00  0.00    +0.006 A 
ATOM      5  C   UNL     1      41.654  18.170  21.731  0.00  0.00    -0.025 A 
ATOM      6  C   UNL     1      40.586  18.758  21.124  0.00  0.00    +0.061 A 
ATOM      7  C   UNL     1      40.765  19.716  20.129  0.00  0.00    -0.105 A 
ATOM      8  C   UNL     1      42.028  20.093  19.734  0.00  0.00    +0.160 A 
ATOM     11  C   UNL     1      43.151  19.502  20.346  0.00  0.00    -0.101 A 
ATOM     12  C   UNL     1      44.458  19.862  19.971  0.00  0.00    +0.176 A 
ATOM     15  C   UNL     1      45.539  19.260  20.602  0.00  0.00    -0.074 A 
BRANCH   8   9
ATOM      9  O   UNL     1      42.190  21.028  18.763  0.00  0.00    -0.295 OA
ATOM     10  C   UNL     1      41.122  21.957  18.571  0.00  0.00    +0.239 C 
ENDBRANCH   8   9
BRANCH  12  13
ATOM     13  O   UNL     1      44.660  20.794  19.004  0.00  0.00    -0.471 OA
ATOM     14  H   UNL     1      44.152  21.607  19.129  0.00  0.00    +0.389 HD
ENDBRANCH  12  13
ENDBRANCH  16  15
BRANCH  17  18
ATOM     18  O   UNL     1      46.831  21.502  21.709  0.00  0.00    -0.305 OA
ATOM     19  C   UNL     1      46.602  22.877  21.393  0.00  0.00    +0.246 C 
ENDBRANCH  17  18
BRANCH  29  30
ATOM     30  O   UNL     1      47.026  17.777  18.733  0.00  0.00    -0.317 OA
ATOM     31  C   UNL     1      46.148  18.002  17.629  0.00  0.00    +0.235 C 
ENDBRANCH  29  30
TORSDOF 5
ENDMDL
MODEL 2
REMARK VINA RESULT:      -6.0      1.012      2.782
REMARK  Name = ZINC95486218
REMARK  11 active torsions:
REMARK  status: ('A' for Active; 'I' for Inactive)
REMARK    1  A    between atoms: C1_1  and  C2_2
REMARK    2  A    between atoms: C8_8  and  O4_29
REMARK    3  A    between atoms: C10_10  and  O3_28
REMARK    4  A    between atoms: C11_11  and  C12_12
REMARK    5  A    between atoms: C13_13  and  O2_26
REMARK    6  A    between atoms: C17_17  and  C23_25
REMARK    7  A    between atoms: C18_19  and  C22_24
REMARK    8  A    between atoms: C20_21  and  O1_22
REMARK    9  A    between atoms: O1_22  and  C21_23
REMARK   10  A    between atoms: O2_26  and  C24_27
REMARK   11  A    between atoms: O4_29  and  C25_30
REMARK                            x       y       z     vdW  Elec       q    Type
REMARK                         _______ _______ _______ _____ _____    ______ ____
ROOT
ATOM     16  C   UNL     1      46.699  18.593  19.550  0.00  0.00    -0.086 A 
ATOM     17  C   UNL     1      47.027  17.895  18.373  0.00  0.00    +0.181 A 
ATOM     20  C   UNL     1      48.282  17.972  17.841  0.00  0.00    -0.091 A 
ATOM     21  C   UNL     1      49.261  18.755  18.467  0.00  0.00    +0.039 A 
ATOM     22  C   UNL     1      50.567  18.866  17.954  0.00  0.00    -0.048 A 
ATOM     23  C   UNL     1      51.465  19.645  18.616  0.00  0.00    +0.132 A 
ATOM     24  C   UNL     1      52.867  19.770  18.075  0.00  0.00    +0.125 C 
ATOM     25  N   UNL     1      51.143  20.300  19.724  0.00  0.00    -0.501 NA
ATOM     26  C   UNL     1      49.945  20.243  20.259  0.00  0.00    +0.205 A 
ATOM     27  C   UNL     1      49.644  21.011  21.520  0.00  0.00    +0.141 C 
ATOM     28  C   UNL     1      48.945  19.467  19.655  0.00  0.00    -0.162 A 
ATOM     29  C   UNL     1      47.645  19.382  20.190  0.00  0.00    +0.192 A 
ENDROOT
BRANCH  16  15
ATOM      1  C   UNL     1      46.171  16.699  21.656  0.00  0.00    +0.092 C 
ATOM      2  C   UNL     1      45.061  17.572  21.132  0.00  0.00    -0.036 A 
ATOM      3  C   UNL     1      43.814  17.464  21.664  0.00  0.00    +0.002 A 
ATOM      4  C   UNL     1      42.769  18.274  21.185  0.00  0.00    +0.006 A 
ATOM      5  C   UNL     1      41.475  18.178  21.721  0.00  0.00    -0.025 A 
ATOM      6  C   UNL     1      40.478  18.972  21.242  0.00  0.00    +0.061 A 
ATOM      7  C   UNL     1      40.718  19.887  20.221  0.00  0.00    -0.105 A 
ATOM      8  C   UNL     1      41.972  20.012  19.668  0.00  0.00    +0.160 A 
ATOM     11  C   UNL     1      43.024  19.204  20.145  0.00  0.00    -0.101 A 
ATOM     12  C   UNL     1      44.319  19.303  19.606  0.00  0.00    +0.176 A 
ATOM     15  C   UNL     1      45.330  18.492  20.107  0.00  0.00    -0.074 A 
BRANCH   8   9
ATOM      9  O   UNL     1      42.195  20.907  18.671  0.00  0.00    -0.295 OA
ATOM     10  C   UNL     1      41.322  22.037  18.607  0.00  0.00    +0.239 C 
ENDBRANCH   8   9
BRANCH  12  13
ATOM     13  O   UNL     1      44.581  20.187  18.609  0.00  0.00    -0.471 OA
ATOM     14  H   UNL     1      45.347  20.753  18.777  0.00  0.00    +0.389 HD
ENDBRANCH  12  13
ENDBRANCH  16  15
BRANCH  17  18
ATOM     18  O   UNL     1      46.085  17.133  17.761  0.00  0.00    -0.305 OA
ATOM     19  C   UNL     1      46.548  16.150  16.832  0.00  0.00    +0.246 C 
ENDBRANCH  17  18
BRANCH  29  30
ATOM     30  O   UNL     1      47.323  20.059  21.322  0.00  0.00    -0.317 OA
ATOM     31  C   UNL     1      46.650  21.308  21.159  0.00  0.00    +0.235 C 
ENDBRANCH  29  30
TORSDOF 5
ENDMDL
MODEL 3
REMARK VINA RESULT:      -6.0      2.679      7.407
REMARK  Name = ZINC95486218
REMARK  11 active torsions:
REMARK  status: ('A' for Active; 'I' for Inactive)
REMARK    1  A    between atoms: C1_1  and  C2_2
REMARK    2  A    between atoms: C8_8  and  O4_29
REMARK    3  A    between atoms: C10_10  and  O3_28
REMARK    4  A    between atoms: C11_11  and  C12_12
REMARK    5  A    between atoms: C13_13  and  O2_26
REMARK    6  A    between atoms: C17_17  and  C23_25
REMARK    7  A    between atoms: C18_19  and  C22_24
REMARK    8  A    between atoms: C20_21  and  O1_22
REMARK    9  A    between atoms: O1_22  and  C21_23
REMARK   10  A    between atoms: O2_26  and  C24_27
REMARK   11  A    between atoms: O4_29  and  C25_30
REMARK                            x       y       z     vdW  Elec       q    Type
REMARK                         _______ _______ _______ _____ _____    ______ ____
ROOT
ATOM     16  C   UNL     1      46.195  20.134  19.865  0.00  0.00    -0.086 A 
ATOM     17  C   UNL     1      45.601  18.914  19.492  0.00  0.00    +0.181 A 
ATOM     20  C   UNL     1      44.287  18.858  19.126  0.00  0.00    -0.091 A 
ATOM     21  C   UNL     1      43.513  20.026  19.120  0.00  0.00    +0.039 A 
ATOM     22  C   UNL     1      42.154  20.016  18.751  0.00  0.00    -0.048 A 
ATOM     23  C   UNL     1      41.464  21.189  18.769  0.00  0.00    +0.132 A 
ATOM     24  C   UNL     1      40.009  21.189  18.375  0.00  0.00    +0.125 C 
ATOM     25  N   UNL     1      42.035  22.333  19.123  0.00  0.00    -0.501 NA
ATOM     26  C   UNL     1      43.296  22.416  19.479  0.00  0.00    +0.205 A 
ATOM     27  C   UNL     1      43.882  23.748  19.871  0.00  0.00    +0.141 C 
ATOM     28  C   UNL     1      44.097  21.265  19.495  0.00  0.00    -0.162 A 
ATOM     29  C   UNL     1      45.451  21.307  19.875  0.00  0.00    +0.192 A 
ENDROOT
BRANCH  16  15
ATOM      1  C   UNL     1      46.952  19.258  22.504  0.00  0.00    +0.092 C 
ATOM      2  C   UNL     1      48.003  19.744  21.541  0.00  0.00    -0.036 A 
ATOM      3  C   UNL     1      49.308  19.760  21.923  0.00  0.00    +0.002 A 
ATOM      4  C   UNL     1      50.299  20.210  21.033  0.00  0.00    +0.006 A 
ATOM      5  C   UNL     1      51.652  20.233  21.409  0.00  0.00    -0.025 A 
ATOM      6  C   UNL     1      52.596  20.672  20.531  0.00  0.00    +0.061 A 
ATOM      7  C   UNL     1      52.243  21.104  19.255  0.00  0.00    -0.105 A 
ATOM      8  C   UNL     1      50.928  21.098  18.848  0.00  0.00    +0.160 A 
ATOM     11  C   UNL     1      49.930  20.647  19.735  0.00  0.00    -0.101 A 
ATOM     12  C   UNL     1      48.576  20.624  19.356  0.00  0.00    +0.176 A 
ATOM     15  C   UNL     1      47.623  20.167  20.258  0.00  0.00    -0.074 A 
BRANCH   8   9
ATOM      9  O   UNL     1      50.595  21.522  17.602  0.00  0.00    -0.295 OA
ATOM     10  C   UNL     1      51.466  21.144  16.534  0.00  0.00    +0.239 C 
ENDBRANCH   8   9
BRANCH  12  13
ATOM     13  O   UNL     1      48.204  21.040  18.118  0.00  0.00    -0.471 OA
ATOM     14  H   UNL     1      47.333  20.723  17.842  0.00  0.00    +0.389 HD
ENDBRANCH  12  13
ENDBRANCH  16  15
BRANCH  17  18
ATOM     18  O   UNL     1      46.346  17.779  19.495  0.00  0.00    -0.305 OA
ATOM     19  C   UNL     1      45.841  16.670  18.747  0.00  0.00    +0.246 C 
ENDBRANCH  17  18
BRANCH  29  30
ATOM     30  O   UNL     1      46.025  22.481  20.241  0.00  0.00    -0.317 OA
ATOM     31  C   UNL     1      46.168  22.723  21.642  0.00  0.00    +0.235 C 
ENDBRANCH  29  30
TORSDOF 5
ENDMDL
MODEL 4
REMARK VINA RESULT:      -5.7      3.344      5.439
REMARK  Name = ZINC95486218
REMARK  11 active torsions:
REMARK  status: ('A' for Active; 'I' for Inactive)
REMARK    1  A    between atoms: C1_1  and  C2_2
REMARK    2  A    between atoms: C8_8  and  O4_29
REMARK    3  A    between atoms: C10_10  and  O3_28
REMARK    4  A    between atoms: C11_11  and  C12_12
REMARK    5  A    between atoms: C13_13  and  O2_26
REMARK    6  A    between atoms: C17_17  and  C23_25
REMARK    7  A    between atoms: C18_19  and  C22_24
REMARK    8  A    between atoms: C20_21  and  O1_22
REMARK    9  A    between atoms: O1_22  and  C21_23
REMARK   10  A    between atoms: O2_26  and  C24_27
REMARK   11  A    between atoms: O4_29  and  C25_30
REMARK                            x       y       z     vdW  Elec       q    Type
REMARK                         _______ _______ _______ _____ _____    ______ ____
ROOT
ATOM     16  C   UNL     1      47.140  14.777  18.380  0.00  0.00    -0.086 A 
ATOM     17  C   UNL     1      46.708  13.737  17.536  0.00  0.00    +0.181 A 
ATOM     20  C   UNL     1      47.543  13.207  16.594  0.00  0.00    -0.091 A 
ATOM     21  C   UNL     1      48.847  13.702  16.458  0.00  0.00    +0.039 A 
ATOM     22  C   UNL     1      49.742  13.188  15.500  0.00  0.00    -0.048 A 
ATOM     23  C   UNL     1      50.994  13.717  15.426  0.00  0.00    +0.132 A 
ATOM     24  C   UNL     1      51.959  13.174  14.404  0.00  0.00    +0.125 C 
ATOM     25  N   UNL     1      51.389  14.698  16.227  0.00  0.00    -0.501 NA
ATOM     26  C   UNL     1      50.608  15.225  17.142  0.00  0.00    +0.205 A 
ATOM     27  C   UNL     1      51.120  16.338  18.020  0.00  0.00    +0.141 C 
ATOM     28  C   UNL     1      49.298  14.751  17.302  0.00  0.00    -0.162 A 
ATOM     29  C   UNL     1      48.425  15.291  18.266  0.00  0.00    +0.192 A 
ENDROOT
BRANCH  16  15
ATOM      1  C   UNL     1      46.655  13.298  20.806  0.00  0.00    +0.092 C 
ATOM      2  C   UNL     1      45.970  14.621  20.579  0.00  0.00    -0.036 A 
ATOM      3  C   UNL     1      45.130  15.113  21.528  0.00  0.00    +0.002 A 
ATOM      4  C   UNL     1      44.485  16.346  21.329  0.00  0.00    +0.006 A 
ATOM      5  C   UNL     1      43.613  16.871  22.298  0.00  0.00    -0.025 A 
ATOM      6  C   UNL     1      43.000  18.068  22.085  0.00  0.00    +0.061 A 
ATOM      7  C   UNL     1      43.221  18.790  20.915  0.00  0.00    -0.105 A 
ATOM      8  C   UNL     1      44.067  18.310  19.941  0.00  0.00    +0.160 A 
ATOM     11  C   UNL     1      44.717  17.075  20.135  0.00  0.00    -0.101 A 
ATOM     12  C   UNL     1      45.589  16.552  19.164  0.00  0.00    +0.176 A 
ATOM     15  C   UNL     1      46.215  15.333  19.395  0.00  0.00    -0.074 A 
BRANCH   8   9
ATOM      9  O   UNL     1      44.275  19.022  18.804  0.00  0.00    -0.295 OA
ATOM     10  C   UNL     1      44.572  20.412  18.953  0.00  0.00    +0.239 C 
ENDBRANCH   8   9
BRANCH  12  13
ATOM     13  O   UNL     1      45.823  17.235  18.014  0.00  0.00    -0.471 OA
ATOM     14  H   UNL     1      45.743  18.195  18.103  0.00  0.00    +0.389 HD
ENDBRANCH  12  13
ENDBRANCH  16  15
BRANCH  17  18
ATOM     18  O   UNL     1      45.446  13.252  17.662  0.00  0.00    -0.305 OA
ATOM     19  C   UNL     1      45.144  12.041  16.966  0.00  0.00    +0.246 C 
ENDBRANCH  17  18
BRANCH  29  30
ATOM     30  O   UNL     1      48.836  16.298  19.077  0.00  0.00    -0.317 OA
ATOM     31  C   UNL     1      49.213  15.943  20.409  0.00  0.00    +0.235 C 
ENDBRANCH  29  30
TORSDOF 5
ENDMDL
MODEL 5
REMARK VINA RESULT:      -5.4      2.426      7.560
REMARK  Name = ZINC95486218
REMARK  11 active torsions:
REMARK  status: ('A' for Active; 'I' for Inactive)
REMARK    1  A    between atoms: C1_1  and  C2_2
REMARK    2  A    between atoms: C8_8  and  O4_29
REMARK    3  A    between atoms: C10_10  and  O3_28
REMARK    4  A    between atoms: C11_11  and  C12_12
REMARK    5  A    between atoms: C13_13  and  O2_26
REMARK    6  A    between atoms: C17_17  and  C23_25
REMARK    7  A    between atoms: C18_19  and  C22_24
REMARK    8  A    between atoms: C20_21  and  O1_22
REMARK    9  A    between atoms: O1_22  and  C21_23
REMARK   10  A    between atoms: O2_26  and  C24_27
REMARK   11  A    between atoms: O4_29  and  C25_30
REMARK                            x       y       z     vdW  Elec       q    Type
REMARK                         _______ _______ _______ _____ _____    ______ ____
ROOT
ATOM     16  C   UNL     1      46.272  18.057  19.660  0.00  0.00    -0.086 A 
ATOM     17  C   UNL     1      46.078  17.132  20.703  0.00  0.00    +0.181 A 
ATOM     20  C   UNL     1      44.892  17.077  21.377  0.00  0.00    -0.091 A 
ATOM     21  C   UNL     1      43.850  17.949  21.033  0.00  0.00    +0.039 A 
ATOM     22  C   UNL     1      42.612  17.929  21.702  0.00  0.00    -0.048 A 
ATOM     23  C   UNL     1      41.645  18.806  21.313  0.00  0.00    +0.132 A 
ATOM     24  C   UNL     1      40.315  18.792  22.022  0.00  0.00    +0.125 C 
ATOM     25  N   UNL     1      41.842  19.674  20.329  0.00  0.00    -0.501 NA
ATOM     26  C   UNL     1      42.971  19.749  19.663  0.00  0.00    +0.205 A 
ATOM     27  C   UNL     1      43.128  20.758  18.555  0.00  0.00    +0.141 C 
ATOM     28  C   UNL     1      44.031  18.889  19.984  0.00  0.00    -0.162 A 
ATOM     29  C   UNL     1      45.261  18.938  19.300  0.00  0.00    +0.192 A 
ENDROOT
BRANCH  16  15
ATOM      1  C   UNL     1      46.577  16.563  17.214  0.00  0.00    +0.092 C 
ATOM      2  C   UNL     1      47.729  17.372  17.752  0.00  0.00    -0.036 A 
ATOM      3  C   UNL     1      48.906  17.396  17.074  0.00  0.00    +0.002 A 
ATOM      4  C   UNL     1      49.989  18.147  17.565  0.00  0.00    +0.006 A 
ATOM      5  C   UNL     1      51.214  18.185  16.878  0.00  0.00    -0.025 A 
ATOM      6  C   UNL     1      52.249  18.920  17.371  0.00  0.00    +0.061 A 
ATOM      7  C   UNL     1      52.117  19.641  18.555  0.00  0.00    -0.105 A 
ATOM      8  C   UNL     1      50.934  19.630  19.258  0.00  0.00    +0.160 A 
ATOM     11  C   UNL     1      49.845  18.880  18.771  0.00  0.00    -0.101 A 
ATOM     12  C   UNL     1      48.620  18.844  19.460  0.00  0.00    +0.176 A 
ATOM     15  C   UNL     1      47.568  18.096  18.944  0.00  0.00    -0.074 A 
BRANCH   8   9
ATOM      9  O   UNL     1      50.816  20.337  20.411  0.00  0.00    -0.295 OA
ATOM     10  C   UNL     1      51.959  21.083  20.834  0.00  0.00    +0.239 C 
ENDBRANCH   8   9
BRANCH  12  13
ATOM     13  O   UNL     1      48.464  19.538  20.617  0.00  0.00    -0.471 OA
ATOM     14  H   UNL     1      47.689  20.116  20.626  0.00  0.00    +0.389 HD
ENDBRANCH  12  13
ENDBRANCH  16  15
BRANCH  17  18
ATOM     18  O   UNL     1      47.082  16.283  21.041  0.00  0.00    -0.305 OA
ATOM     19  C   UNL     1      46.868  14.893  20.788  0.00  0.00    +0.246 C 
ENDBRANCH  17  18
BRANCH  29  30
ATOM     30  O   UNL     1      45.453  19.833  18.298  0.00  0.00    -0.317 OA
ATOM     31  C   UNL     1      46.107  21.056  18.639  0.00  0.00    +0.235 C 
ENDBRANCH  29  30
TORSDOF 5
ENDMDL
MODEL 6
REMARK VINA RESULT:      -5.4      2.246      7.393
REMARK  Name = ZINC95486218
REMARK  11 active torsions:
REMARK  status: ('A' for Active; 'I' for Inactive)
REMARK    1  A    between atoms: C1_1  and  C2_2
REMARK    2  A    between atoms: C8_8  and  O4_29
REMARK    3  A    between atoms: C10_10  and  O3_28
REMARK    4  A    between atoms: C11_11  and  C12_12
REMARK    5  A    between atoms: C13_13  and  O2_26
REMARK    6  A    between atoms: C17_17  and  C23_25
REMARK    7  A    between atoms: C18_19  and  C22_24
REMARK    8  A    between atoms: C20_21  and  O1_22
REMARK    9  A    between atoms: O1_22  and  C21_23
REMARK   10  A    between atoms: O2_26  and  C24_27
REMARK   11  A    between atoms: O4_29  and  C25_30
REMARK                            x       y       z     vdW  Elec       q    Type
REMARK                         _______ _______ _______ _____ _____    ______ ____
ROOT
ATOM     16  C   UNL     1      46.518  19.179  20.463  0.00  0.00    -0.086 A 
ATOM     17  C   UNL     1      46.425  18.410  21.638  0.00  0.00    +0.181 A 
ATOM     20  C   UNL     1      45.209  18.032  22.133  0.00  0.00    -0.091 A 
ATOM     21  C   UNL     1      44.035  18.412  21.468  0.00  0.00    +0.039 A 
ATOM     22  C   UNL     1      42.761  18.047  21.942  0.00  0.00    -0.048 A 
ATOM     23  C   UNL     1      41.664  18.451  21.244  0.00  0.00    +0.132 A 
ATOM     24  C   UNL     1      40.295  18.064  21.743  0.00  0.00    +0.125 C 
ATOM     25  N   UNL     1      41.765  19.176  20.138  0.00  0.00    -0.501 NA
ATOM     26  C   UNL     1      42.920  19.553  19.639  0.00  0.00    +0.205 A 
ATOM     27  C   UNL     1      42.965  20.377  18.379  0.00  0.00    +0.141 C 
ATOM     28  C   UNL     1      44.112  19.188  20.282  0.00  0.00    -0.162 A 
ATOM     29  C   UNL     1      45.372  19.575  19.786  0.00  0.00    +0.192 A 
ENDROOT
BRANCH  16  15
ATOM      1  C   UNL     1      47.781  21.553  21.500  0.00  0.00    +0.092 C 
ATOM      2  C   UNL     1      48.474  20.730  20.444  0.00  0.00    -0.036 A 
ATOM      3  C   UNL     1      49.697  21.111  19.992  0.00  0.00    +0.002 A 
ATOM      4  C   UNL     1      50.354  20.351  19.008  0.00  0.00    +0.006 A 
ATOM      5  C   UNL     1      51.619  20.729  18.528  0.00  0.00    -0.025 A 
ATOM      6  C   UNL     1      52.238  19.978  17.575  0.00  0.00    +0.061 A 
ATOM      7  C   UNL     1      51.636  18.832  17.061  0.00  0.00    -0.105 A 
ATOM      8  C   UNL     1      50.397  18.429  17.505  0.00  0.00    +0.160 A 
ATOM     11  C   UNL     1      49.734  19.185  18.491  0.00  0.00    -0.101 A 
ATOM     12  C   UNL     1      48.468  18.805  18.971  0.00  0.00    +0.176 A 
ATOM     15  C   UNL     1      47.849  19.575  19.948  0.00  0.00    -0.074 A 
BRANCH   8   9
ATOM      9  O   UNL     1      49.819  17.310  16.997  0.00  0.00    -0.295 OA
ATOM     10  C   UNL     1      50.546  16.087  17.128  0.00  0.00    +0.239 C 
ENDBRANCH   8   9
BRANCH  12  13
ATOM     13  O   UNL     1      47.858  17.692  18.487  0.00  0.00    -0.471 OA
ATOM     14  H   UNL     1      46.962  17.846  18.158  0.00  0.00    +0.389 HD
ENDBRANCH  12  13
ENDBRANCH  16  15
BRANCH  17  18
ATOM     18  O   UNL     1      47.558  18.038  22.287  0.00  0.00    -0.305 OA
ATOM     19  C   UNL     1      47.879  16.646  22.284  0.00  0.00    +0.246 C 
ENDBRANCH  17  18
BRANCH  29  30
ATOM     30  O   UNL     1      45.465  20.322  18.656  0.00  0.00    -0.317 OA
ATOM     31  C   UNL     1      45.568  21.737  18.822  0.00  0.00    +0.235 C 
ENDBRANCH  29  30
TORSDOF 5
ENDMDL
MODEL 7
REMARK VINA RESULT:      -5.4      2.948      5.129
REMARK  Name = ZINC95486218
REMARK  11 active torsions:
REMARK  status: ('A' for Active; 'I' for Inactive)
REMARK    1  A    between atoms: C1_1  and  C2_2
REMARK    2  A    between atoms: C8_8  and  O4_29
REMARK    3  A    between atoms: C10_10  and  O3_28
REMARK    4  A    between atoms: C11_11  and  C12_12
REMARK    5  A    between atoms: C13_13  and  O2_26
REMARK    6  A    between atoms: C17_17  and  C23_25
REMARK    7  A    between atoms: C18_19  and  C22_24
REMARK    8  A    between atoms: C20_21  and  O1_22
REMARK    9  A    between atoms: O1_22  and  C21_23
REMARK   10  A    between atoms: O2_26  and  C24_27
REMARK   11  A    between atoms: O4_29  and  C25_30
REMARK                            x       y       z     vdW  Elec       q    Type
REMARK                         _______ _______ _______ _____ _____    ______ ____
ROOT
ATOM     16  C   UNL     1      45.754  17.167  19.990  0.00  0.00    -0.086 A 
ATOM     17  C   UNL     1      45.198  16.234  20.885  0.00  0.00    +0.181 A 
ATOM     20  C   UNL     1      45.097  14.915  20.546  0.00  0.00    -0.091 A 
ATOM     21  C   UNL     1      45.548  14.478  19.293  0.00  0.00    +0.039 A 
ATOM     22  C   UNL     1      45.462  13.129  18.901  0.00  0.00    -0.048 A 
ATOM     23  C   UNL     1      45.921  12.776  17.669  0.00  0.00    +0.132 A 
ATOM     24  C   UNL     1      45.834  11.334  17.239  0.00  0.00    +0.125 C 
ATOM     25  N   UNL     1      46.442  13.667  16.834  0.00  0.00    -0.501 NA
ATOM     26  C   UNL     1      46.553  14.940  17.134  0.00  0.00    +0.205 A 
ATOM     27  C   UNL     1      47.155  15.899  16.139  0.00  0.00    +0.141 C 
ATOM     28  C   UNL     1      46.110  15.408  18.380  0.00  0.00    -0.162 A 
ATOM     29  C   UNL     1      46.204  16.765  18.740  0.00  0.00    +0.192 A 
ENDROOT
BRANCH  16  15
ATOM      1  C   UNL     1      47.981  18.035  21.601  0.00  0.00    +0.092 C 
ATOM      2  C   UNL     1      46.932  19.026  21.167  0.00  0.00    -0.036 A 
ATOM      3  C   UNL     1      47.048  20.330  21.536  0.00  0.00    +0.002 A 
ATOM      4  C   UNL     1      46.077  21.265  21.137  0.00  0.00    +0.006 A 
ATOM      5  C   UNL     1      46.180  22.616  21.507  0.00  0.00    -0.025 A 
ATOM      6  C   UNL     1      45.228  23.506  21.110  0.00  0.00    +0.061 A 
ATOM      7  C   UNL     1      44.144  23.099  20.337  0.00  0.00    -0.105 A 
ATOM      8  C   UNL     1      44.006  21.784  19.954  0.00  0.00    +0.160 A 
ATOM     11  C   UNL     1      44.977  20.842  20.349  0.00  0.00    -0.101 A 
ATOM     12  C   UNL     1      44.872  19.490  19.977  0.00  0.00    +0.176 A 
ATOM     15  C   UNL     1      45.852  18.593  20.383  0.00  0.00    -0.074 A 
BRANCH   8   9
ATOM      9  O   UNL     1      42.945  21.398  19.200  0.00  0.00    -0.295 OA
ATOM     10  C   UNL     1      41.945  22.383  18.935  0.00  0.00    +0.239 C 
ENDBRANCH   8   9
BRANCH  12  13
ATOM     13  O   UNL     1      43.825  19.066  19.223  0.00  0.00    -0.471 OA
ATOM     14  H   UNL     1      43.149  19.741  19.074  0.00  0.00    +0.389 HD
ENDBRANCH  12  13
ENDBRANCH  16  15
BRANCH  17  18
ATOM     18  O   UNL     1      44.759  16.650  22.100  0.00  0.00    -0.305 OA
ATOM     19  C   UNL     1      43.345  16.715  22.292  0.00  0.00    +0.246 C 
ENDBRANCH  17  18
BRANCH  29  30
ATOM     30  O   UNL     1      46.734  17.669  17.877  0.00  0.00    -0.317 OA
ATOM     31  C   UNL     1      48.109  18.011  18.061  0.00  0.00    +0.235 C 
ENDBRANCH  29  30
TORSDOF 5
ENDMDL
MODEL 8
REMARK VINA RESULT:      -5.3      3.327      5.556
REMARK  Name = ZINC95486218
REMARK  11 active torsions:
REMARK  status: ('A' for Active; 'I' for Inactive)
REMARK    1  A    between atoms: C1_1  and  C2_2
REMARK    2  A    between atoms: C8_8  and  O4_29
REMARK    3  A    between atoms: C10_10  and  O3_28
REMARK    4  A    between atoms: C11_11  and  C12_12
REMARK    5  A    between atoms: C13_13  and  O2_26
REMARK    6  A    between atoms: C17_17  and  C23_25
REMARK    7  A    between atoms: C18_19  and  C22_24
REMARK    8  A    between atoms: C20_21  and  O1_22
REMARK    9  A    between atoms: O1_22  and  C21_23
REMARK   10  A    between atoms: O2_26  and  C24_27
REMARK   11  A    between atoms: O4_29  and  C25_30
REMARK                            x       y       z     vdW  Elec       q    Type
REMARK                         _______ _______ _______ _____ _____    ______ ____
ROOT
ATOM     16  C   UNL     1      48.229  17.519  19.004  0.00  0.00    -0.086 A 
ATOM     17  C   UNL     1      47.721  18.777  18.629  0.00  0.00    +0.181 A 
ATOM     20  C   UNL     1      48.473  19.907  18.775  0.00  0.00    -0.091 A 
ATOM     21  C   UNL     1      49.768  19.822  19.305  0.00  0.00    +0.039 A 
ATOM     22  C   UNL     1      50.579  20.960  19.475  0.00  0.00    -0.048 A 
ATOM     23  C   UNL     1      51.827  20.801  19.996  0.00  0.00    +0.132 A 
ATOM     24  C   UNL     1      52.703  22.013  20.181  0.00  0.00    +0.125 C 
ATOM     25  N   UNL     1      52.294  19.609  20.345  0.00  0.00    -0.501 NA
ATOM     26  C   UNL     1      51.593  18.506  20.215  0.00  0.00    +0.205 A 
ATOM     27  C   UNL     1      52.183  17.184  20.632  0.00  0.00    +0.141 C 
ATOM     28  C   UNL     1      50.295  18.560  19.688  0.00  0.00    -0.162 A 
ATOM     29  C   UNL     1      49.506  17.404  19.536  0.00  0.00    +0.192 A 
ENDROOT
BRANCH  16  15
ATOM      1  C   UNL     1      46.133  16.977  20.906  0.00  0.00    +0.092 C 
ATOM      2  C   UNL     1      46.369  16.034  19.755  0.00  0.00    -0.036 A 
ATOM      3  C   UNL     1      45.584  14.933  19.618  0.00  0.00    +0.002 A 
ATOM      4  C   UNL     1      45.793  14.045  18.547  0.00  0.00    +0.006 A 
ATOM      5  C   UNL     1      44.992  12.902  18.388  0.00  0.00    -0.025 A 
ATOM      6  C   UNL     1      45.211  12.057  17.343  0.00  0.00    +0.061 A 
ATOM      7  C   UNL     1      46.224  12.304  16.421  0.00  0.00    -0.105 A 
ATOM      8  C   UNL     1      47.031  13.412  16.541  0.00  0.00    +0.160 A 
ATOM     11  C   UNL     1      46.826  14.306  17.612  0.00  0.00    -0.101 A 
ATOM     12  C   UNL     1      47.629  15.449  17.768  0.00  0.00    +0.176 A 
ATOM     15  C   UNL     1      47.392  16.309  18.834  0.00  0.00    -0.074 A 
BRANCH   8   9
ATOM      9  O   UNL     1      48.016  13.643  15.636  0.00  0.00    -0.295 OA
ATOM     10  C   UNL     1      48.080  12.768  14.508  0.00  0.00    +0.239 C 
ENDBRANCH   8   9
BRANCH  12  13
ATOM     13  O   UNL     1      48.624  15.715  16.882  0.00  0.00    -0.471 OA
ATOM     14  H   UNL     1      49.502  15.447  17.186  0.00  0.00    +0.389 HD
ENDBRANCH  12  13
ENDBRANCH  16  15
BRANCH  17  18
ATOM     18  O   UNL     1      46.468  18.868  18.115  0.00  0.00    -0.305 OA
ATOM     19  C   UNL     1      45.628  19.902  18.631  0.00  0.00    +0.246 C 
ENDBRANCH  17  18
BRANCH  29  30
ATOM     30  O   UNL     1      49.990  16.189  19.902  0.00  0.00    -0.317 OA
ATOM     31  C   UNL     1      49.536  15.659  21.148  0.00  0.00    +0.235 C 
ENDBRANCH  29  30
TORSDOF 5
ENDMDL
MODEL 9
REMARK VINA RESULT:      -5.2      2.403      4.794
REMARK  Name = ZINC95486218
REMARK  11 active torsions:
REMARK  status: ('A' for Active; 'I' for Inactive)
REMARK    1  A    between atoms: C1_1  and  C2_2
REMARK    2  A    between atoms: C8_8  and  O4_29
REMARK    3  A    between atoms: C10_10  and  O3_28
REMARK    4  A    between atoms: C11_11  and  C12_12
REMARK    5  A    between atoms: C13_13  and  O2_26
REMARK    6  A    between atoms: C17_17  and  C23_25
REMARK    7  A    between atoms: C18_19  and  C22_24
REMARK    8  A    between atoms: C20_21  and  O1_22
REMARK    9  A    between atoms: O1_22  and  C21_23
REMARK   10  A    between atoms: O2_26  and  C24_27
REMARK   11  A    between atoms: O4_29  and  C25_30
REMARK                            x       y       z     vdW  Elec       q    Type
REMARK                         _______ _______ _______ _____ _____    ______ ____
ROOT
ATOM     16  C   UNL     1      49.385  18.435  18.785  0.00  0.00    -0.086 A 
ATOM     17  C   UNL     1      50.353  18.746  17.811  0.00  0.00    +0.181 A 
ATOM     20  C   UNL     1      50.979  17.758  17.107  0.00  0.00    -0.091 A 
ATOM     21  C   UNL     1      50.660  16.415  17.352  0.00  0.00    +0.039 A 
ATOM     22  C   UNL     1      51.281  15.363  16.652  0.00  0.00    -0.048 A 
ATOM     23  C   UNL     1      50.921  14.083  16.942  0.00  0.00    +0.132 A 
ATOM     24  C   UNL     1      51.579  12.950  16.197  0.00  0.00    +0.125 C 
ATOM     25  N   UNL     1      50.007  13.804  17.863  0.00  0.00    -0.501 NA
ATOM     26  C   UNL     1      49.389  14.733  18.554  0.00  0.00    +0.205 A 
ATOM     27  C   UNL     1      48.361  14.348  19.586  0.00  0.00    +0.141 C 
ATOM     28  C   UNL     1      49.686  16.086  18.331  0.00  0.00    -0.162 A 
ATOM     29  C   UNL     1      49.052  17.114  19.053  0.00  0.00    +0.192 A 
ENDROOT
BRANCH  16  15
ATOM      1  C   UNL     1      50.827  19.787  20.882  0.00  0.00    +0.092 C 
ATOM      2  C   UNL     1      49.412  20.192  20.558  0.00  0.00    -0.036 A 
ATOM      3  C   UNL     1      48.826  21.200  21.256  0.00  0.00    +0.002 A 
ATOM      4  C   UNL     1      47.507  21.588  20.963  0.00  0.00    +0.006 A 
ATOM      5  C   UNL     1      46.884  22.628  21.673  0.00  0.00    -0.025 A 
ATOM      6  C   UNL     1      45.606  22.988  21.372  0.00  0.00    +0.061 A 
ATOM      7  C   UNL     1      44.896  22.339  20.365  0.00  0.00    -0.105 A 
ATOM      8  C   UNL     1      45.470  21.315  19.646  0.00  0.00    +0.160 A 
ATOM     11  C   UNL     1      46.792  20.922  19.935  0.00  0.00    -0.101 A 
ATOM     12  C   UNL     1      47.414  19.881  19.223  0.00  0.00    +0.176 A 
ATOM     15  C   UNL     1      48.720  19.527  19.534  0.00  0.00    -0.074 A 
BRANCH   8   9
ATOM      9  O   UNL     1      44.768  20.689  18.667  0.00  0.00    -0.295 OA
ATOM     10  C   UNL     1      43.440  20.271  18.986  0.00  0.00    +0.239 C 
ENDBRANCH   8   9
BRANCH  12  13
ATOM     13  O   UNL     1      46.744  19.232  18.235  0.00  0.00    -0.471 OA
ATOM     14  H   UNL     1      45.913  18.830  18.523  0.00  0.00    +0.389 HD
ENDBRANCH  12  13
ENDBRANCH  16  15
BRANCH  17  18
ATOM     18  O   UNL     1      50.667  20.044  17.568  0.00  0.00    -0.305 OA
ATOM     19  C   UNL     1      52.038  20.340  17.296  0.00  0.00    +0.246 C 
ENDBRANCH  17  18
BRANCH  29  30
ATOM     30  O   UNL     1      48.123  16.819  19.997  0.00  0.00    -0.317 OA
ATOM     31  C   UNL     1      48.543  16.876  21.361  0.00  0.00    +0.235 C 
ENDBRANCH  29  30
TORSDOF 5
ENDMDL
