MODEL 1
REMARK VINA RESULT:      -5.9      0.000      0.000
REMARK  Name = ZINC95486253
REMARK  7 active torsions:
REMARK  status: ('A' for Active; 'I' for Inactive)
REMARK    1  A    between atoms: C1_1  and  C2_2
REMARK    2  A    between atoms: C2_2  and  O2_4
REMARK    3  A    between atoms: O2_4  and  C3_5
REMARK    4  A    between atoms: C7_11  and  C21_27
REMARK    5  A    between atoms: C11_15  and  C19_25
REMARK    6  A    between atoms: C11_15  and  C20_26
REMARK    7  A    between atoms: C15_20  and  C18_24
REMARK                            x       y       z     vdW  Elec       q    Type
REMARK                         _______ _______ _______ _____ _____    ______ ____
ROOT
ATOM      4  C   UNL     1      42.714  19.699  19.315  0.00  0.00    +0.175 C 
ATOM      5  C   UNL     1      43.180  18.737  20.443  0.00  0.00    +0.035 C 
ATOM      6  C   UNL     1      44.352  17.884  19.972  0.00  0.00    +0.039 C 
ATOM      7  C   UNL     1      45.782  18.317  20.201  0.00  0.00    -0.043 C 
ATOM      8  C   UNL     1      46.714  17.519  19.271  0.00  0.00    -0.030 C 
ATOM      9  C   UNL     1      46.261  16.047  19.395  0.00  0.00    +0.016 C 
ATOM     10  C   UNL     1      46.516  17.959  17.823  0.00  0.00    +0.015 C 
ATOM     11  C   UNL     1      47.422  17.167  16.882  0.00  0.00    +0.001 C 
ATOM     12  C   UNL     1      48.883  17.401  17.255  0.00  0.00    +0.014 C 
ATOM     13  C   UNL     1      49.149  16.965  18.695  0.00  0.00    -0.051 C 
ATOM     14  C   UNL     1      49.126  15.438  18.793  0.00  0.00    +0.021 C 
ATOM     15  C   UNL     1      50.600  17.373  19.037  0.00  0.00    +0.014 C 
ATOM     16  C   UNL     1      48.183  17.637  19.661  0.00  0.00    +0.012 C 
ATOM     17  C   UNL     1      48.527  19.130  19.768  0.00  0.00    +0.022 C 
ATOM     18  C   UNL     1      47.731  19.702  20.940  0.00  0.00    +0.024 C 
ATOM     19  C   UNL     1      46.226  19.679  20.581  0.00  0.00    +0.133 C 
ATOM     20  C   UNL     1      45.514  20.163  21.871  0.00  0.00    +0.019 C 
ATOM     21  O   UNL     1      46.074  20.659  19.524  0.00  0.00    -0.351 OA
ATOM     22  C   UNL     1      45.057  20.291  18.621  0.00  0.00    +0.215 C 
ATOM     23  C   UNL     1      43.735  20.767  19.162  0.00  0.00    -0.034 C 
ENDROOT
BRANCH   4   3
ATOM      3  O   UNL     1      41.454  20.279  19.660  0.00  0.00    -0.348 OA
BRANCH   3   2
ATOM      1  C   UNL     1      39.528  21.526  18.748  0.00  0.00    +0.155 C 
ATOM      2  C   UNL     1      40.563  20.433  18.668  0.00  0.00    +0.458 C 
ATOM     24  O   UNL     1      40.589  19.695  17.711  0.00  0.00    -0.511 OA
ENDBRANCH   3   2
ENDBRANCH   4   3
TORSDOF 2
ENDMDL
MODEL 2
REMARK VINA RESULT:      -5.9      1.882      2.524
REMARK  Name = ZINC95486253
REMARK  7 active torsions:
REMARK  status: ('A' for Active; 'I' for Inactive)
REMARK    1  A    between atoms: C1_1  and  C2_2
REMARK    2  A    between atoms: C2_2  and  O2_4
REMARK    3  A    between atoms: O2_4  and  C3_5
REMARK    4  A    between atoms: C7_11  and  C21_27
REMARK    5  A    between atoms: C11_15  and  C19_25
REMARK    6  A    between atoms: C11_15  and  C20_26
REMARK    7  A    between atoms: C15_20  and  C18_24
REMARK                            x       y       z     vdW  Elec       q    Type
REMARK                         _______ _______ _______ _____ _____    ______ ____
ROOT
ATOM      4  C   UNL     1      42.798  19.734  19.228  0.00  0.00    +0.175 C 
ATOM      5  C   UNL     1      42.861  19.528  20.767  0.00  0.00    +0.035 C 
ATOM      6  C   UNL     1      43.477  18.176  21.103  0.00  0.00    +0.039 C 
ATOM      7  C   UNL     1      44.961  18.026  21.352  0.00  0.00    -0.043 C 
ATOM      8  C   UNL     1      45.353  16.542  21.237  0.00  0.00    -0.030 C 
ATOM      9  C   UNL     1      44.292  15.769  22.051  0.00  0.00    +0.016 C 
ATOM     10  C   UNL     1      45.266  16.086  19.783  0.00  0.00    +0.015 C 
ATOM     11  C   UNL     1      45.637  14.610  19.650  0.00  0.00    +0.001 C 
ATOM     12  C   UNL     1      47.069  14.394  20.132  0.00  0.00    +0.014 C 
ATOM     13  C   UNL     1      47.217  14.821  21.591  0.00  0.00    -0.051 C 
ATOM     14  C   UNL     1      46.510  13.816  22.505  0.00  0.00    +0.021 C 
ATOM     15  C   UNL     1      48.717  14.711  21.950  0.00  0.00    +0.014 C 
ATOM     16  C   UNL     1      46.741  16.250  21.798  0.00  0.00    +0.012 C 
ATOM     17  C   UNL     1      47.732  17.218  21.136  0.00  0.00    +0.022 C 
ATOM     18  C   UNL     1      47.376  18.630  21.600  0.00  0.00    +0.024 C 
ATOM     19  C   UNL     1      46.003  19.021  21.005  0.00  0.00    +0.133 C 
ATOM     20  C   UNL     1      45.691  20.405  21.630  0.00  0.00    +0.019 C 
ATOM     21  O   UNL     1      46.232  19.152  19.579  0.00  0.00    -0.351 OA
ATOM     22  C   UNL     1      45.093  18.784  18.837  0.00  0.00    +0.215 C 
ATOM     23  C   UNL     1      44.177  19.975  18.733  0.00  0.00    -0.034 C 
ENDROOT
BRANCH   4   3
ATOM      3  O   UNL     1      41.970  20.858  18.921  0.00  0.00    -0.348 OA
BRANCH   3   2
ATOM      1  C   UNL     1      39.589  21.491  18.760  0.00  0.00    +0.155 C 
ATOM      2  C   UNL     1      40.754  20.600  18.415  0.00  0.00    +0.458 C 
ATOM     24  O   UNL     1      40.593  19.651  17.683  0.00  0.00    -0.511 OA
ENDBRANCH   3   2
ENDBRANCH   4   3
TORSDOF 2
ENDMDL
MODEL 3
REMARK VINA RESULT:      -5.8      1.425      1.847
REMARK  Name = ZINC95486253
REMARK  7 active torsions:
REMARK  status: ('A' for Active; 'I' for Inactive)
REMARK    1  A    between atoms: C1_1  and  C2_2
REMARK    2  A    between atoms: C2_2  and  O2_4
REMARK    3  A    between atoms: O2_4  and  C3_5
REMARK    4  A    between atoms: C7_11  and  C21_27
REMARK    5  A    between atoms: C11_15  and  C19_25
REMARK    6  A    between atoms: C11_15  and  C20_26
REMARK    7  A    between atoms: C15_20  and  C18_24
REMARK                            x       y       z     vdW  Elec       q    Type
REMARK                         _______ _______ _______ _____ _____    ______ ____
ROOT
ATOM      4  C   UNL     1      42.647  19.821  19.710  0.00  0.00    +0.175 C 
ATOM      5  C   UNL     1      43.197  19.300  21.066  0.00  0.00    +0.035 C 
ATOM      6  C   UNL     1      44.623  18.789  20.907  0.00  0.00    +0.039 C 
ATOM      7  C   UNL     1      45.814  19.691  21.144  0.00  0.00    -0.043 C 
ATOM      8  C   UNL     1      47.067  19.063  20.507  0.00  0.00    -0.030 C 
ATOM      9  C   UNL     1      47.050  17.579  20.936  0.00  0.00    +0.016 C 
ATOM     10  C   UNL     1      46.970  19.121  18.985  0.00  0.00    +0.015 C 
ATOM     11  C   UNL     1      48.199  18.489  18.334  0.00  0.00    +0.001 C 
ATOM     12  C   UNL     1      49.454  19.244  18.761  0.00  0.00    +0.014 C 
ATOM     13  C   UNL     1      49.615  19.210  20.280  0.00  0.00    -0.051 C 
ATOM     14  C   UNL     1      50.025  17.805  20.731  0.00  0.00    +0.021 C 
ATOM     15  C   UNL     1      50.815  20.117  20.634  0.00  0.00    +0.014 C 
ATOM     16  C   UNL     1      48.362  19.717  20.978  0.00  0.00    +0.012 C 
ATOM     17  C   UNL     1      48.234  21.231  20.759  0.00  0.00    +0.022 C 
ATOM     18  C   UNL     1      47.139  21.741  21.695  0.00  0.00    +0.024 C 
ATOM     19  C   UNL     1      45.778  21.170  21.229  0.00  0.00    +0.133 C 
ATOM     20  C   UNL     1      44.771  21.648  22.306  0.00  0.00    +0.019 C 
ATOM     21  O   UNL     1      45.509  21.821  19.962  0.00  0.00    -0.351 OA
ATOM     22  C   UNL     1      44.791  20.978  19.091  0.00  0.00    +0.215 C 
ATOM     23  C   UNL     1      43.322  21.106  19.395  0.00  0.00    -0.034 C 
ENDROOT
BRANCH   4   3
ATOM      3  O   UNL     1      41.235  20.027  19.804  0.00  0.00    -0.348 OA
BRANCH   3   2
ATOM      1  C   UNL     1      39.666  21.501  18.595  0.00  0.00    +0.155 C 
ATOM      2  C   UNL     1      40.583  20.307  18.665  0.00  0.00    +0.458 C 
ATOM     24  O   UNL     1      40.730  19.601  17.695  0.00  0.00    -0.511 OA
ENDBRANCH   3   2
ENDBRANCH   4   3
TORSDOF 2
ENDMDL
MODEL 4
REMARK VINA RESULT:      -5.8      2.551      4.187
REMARK  Name = ZINC95486253
REMARK  7 active torsions:
REMARK  status: ('A' for Active; 'I' for Inactive)
REMARK    1  A    between atoms: C1_1  and  C2_2
REMARK    2  A    between atoms: C2_2  and  O2_4
REMARK    3  A    between atoms: O2_4  and  C3_5
REMARK    4  A    between atoms: C7_11  and  C21_27
REMARK    5  A    between atoms: C11_15  and  C19_25
REMARK    6  A    between atoms: C11_15  and  C20_26
REMARK    7  A    between atoms: C15_20  and  C18_24
REMARK                            x       y       z     vdW  Elec       q    Type
REMARK                         _______ _______ _______ _____ _____    ______ ____
ROOT
ATOM      4  C   UNL     1      44.370  21.599  20.149  0.00  0.00    +0.175 C 
ATOM      5  C   UNL     1      43.619  20.559  19.274  0.00  0.00    +0.035 C 
ATOM      6  C   UNL     1      44.378  19.239  19.236  0.00  0.00    +0.039 C 
ATOM      7  C   UNL     1      44.085  18.132  20.223  0.00  0.00    -0.043 C 
ATOM      8  C   UNL     1      45.254  17.131  20.234  0.00  0.00    -0.030 C 
ATOM      9  C   UNL     1      45.576  16.855  18.749  0.00  0.00    +0.016 C 
ATOM     10  C   UNL     1      46.484  17.764  20.879  0.00  0.00    +0.015 C 
ATOM     11  C   UNL     1      47.661  16.790  20.886  0.00  0.00    +0.001 C 
ATOM     12  C   UNL     1      47.293  15.543  21.684  0.00  0.00    +0.014 C 
ATOM     13  C   UNL     1      46.072  14.854  21.076  0.00  0.00    -0.051 C 
ATOM     14  C   UNL     1      46.455  14.180  19.756  0.00  0.00    +0.021 C 
ATOM     15  C   UNL     1      45.680  13.697  22.024  0.00  0.00    +0.014 C 
ATOM     16  C   UNL     1      44.907  15.822  20.934  0.00  0.00    +0.012 C 
ATOM     17  C   UNL     1      44.354  16.161  22.326  0.00  0.00    +0.022 C 
ATOM     18  C   UNL     1      43.031  16.899  22.128  0.00  0.00    +0.024 C 
ATOM     19  C   UNL     1      43.318  18.275  21.483  0.00  0.00    +0.133 C 
ATOM     20  C   UNL     1      41.914  18.879  21.222  0.00  0.00    +0.019 C 
ATOM     21  O   UNL     1      44.010  19.035  22.505  0.00  0.00    -0.351 OA
ATOM     22  C   UNL     1      44.940  19.931  21.942  0.00  0.00    +0.215 C 
ATOM     23  C   UNL     1      44.224  21.204  21.573  0.00  0.00    -0.034 C 
ENDROOT
BRANCH   4   3
ATOM      3  O   UNL     1      43.811  22.899  19.948  0.00  0.00    -0.348 OA
BRANCH   3   2
ATOM      1  C   UNL     1      45.679  24.287  20.775  0.00  0.00    +0.155 C 
ATOM      2  C   UNL     1      44.672  23.904  19.721  0.00  0.00    +0.458 C 
ATOM     24  O   UNL     1      44.639  24.503  18.672  0.00  0.00    -0.511 OA
ENDBRANCH   3   2
ENDBRANCH   4   3
TORSDOF 2
ENDMDL
MODEL 5
REMARK VINA RESULT:      -5.8      2.047      3.430
REMARK  Name = ZINC95486253
REMARK  7 active torsions:
REMARK  status: ('A' for Active; 'I' for Inactive)
REMARK    1  A    between atoms: C1_1  and  C2_2
REMARK    2  A    between atoms: C2_2  and  O2_4
REMARK    3  A    between atoms: O2_4  and  C3_5
REMARK    4  A    between atoms: C7_11  and  C21_27
REMARK    5  A    between atoms: C11_15  and  C19_25
REMARK    6  A    between atoms: C11_15  and  C20_26
REMARK    7  A    between atoms: C15_20  and  C18_24
REMARK                            x       y       z     vdW  Elec       q    Type
REMARK                         _______ _______ _______ _____ _____    ______ ____
ROOT
ATOM      4  C   UNL     1      42.908  20.238  19.644  0.00  0.00    +0.175 C 
ATOM      5  C   UNL     1      43.889  19.657  18.588  0.00  0.00    +0.035 C 
ATOM      6  C   UNL     1      45.325  20.040  18.920  0.00  0.00    +0.039 C 
ATOM      7  C   UNL     1      46.207  19.138  19.754  0.00  0.00    -0.043 C 
ATOM      8  C   UNL     1      47.409  19.943  20.283  0.00  0.00    -0.030 C 
ATOM      9  C   UNL     1      47.943  20.735  19.069  0.00  0.00    +0.016 C 
ATOM     10  C   UNL     1      46.950  20.942  21.341  0.00  0.00    +0.015 C 
ATOM     11  C   UNL     1      48.127  21.761  21.867  0.00  0.00    +0.001 C 
ATOM     12  C   UNL     1      49.156  20.833  22.504  0.00  0.00    +0.014 C 
ATOM     13  C   UNL     1      49.667  19.813  21.487  0.00  0.00    -0.051 C 
ATOM     14  C   UNL     1      50.576  20.503  20.466  0.00  0.00    +0.021 C 
ATOM     15  C   UNL     1      50.583  18.827  22.246  0.00  0.00    +0.014 C 
ATOM     16  C   UNL     1      48.516  19.055  20.841  0.00  0.00    +0.012 C 
ATOM     17  C   UNL     1      47.888  18.108  21.874  0.00  0.00    +0.022 C 
ATOM     18  C   UNL     1      46.937  17.176  21.124  0.00  0.00    +0.024 C 
ATOM     19  C   UNL     1      45.745  18.004  20.588  0.00  0.00    +0.133 C 
ATOM     20  C   UNL     1      44.918  16.992  19.754  0.00  0.00    +0.019 C 
ATOM     21  O   UNL     1      45.005  18.409  21.767  0.00  0.00    -0.351 OA
ATOM     22  C   UNL     1      44.397  19.667  21.588  0.00  0.00    +0.215 C 
ATOM     23  C   UNL     1      43.070  19.468  20.903  0.00  0.00    -0.034 C 
ENDROOT
BRANCH   4   3
ATOM      3  O   UNL     1      41.563  20.122  19.175  0.00  0.00    -0.348 OA
BRANCH   3   2
ATOM      1  C   UNL     1      39.491  21.227  18.409  0.00  0.00    +0.155 C 
ATOM      2  C   UNL     1      40.944  21.257  18.812  0.00  0.00    +0.458 C 
ATOM     24  O   UNL     1      41.550  22.302  18.808  0.00  0.00    -0.511 OA
ENDBRANCH   3   2
ENDBRANCH   4   3
TORSDOF 2
ENDMDL
MODEL 6
REMARK VINA RESULT:      -5.6      2.983      5.881
REMARK  Name = ZINC95486253
REMARK  7 active torsions:
REMARK  status: ('A' for Active; 'I' for Inactive)
REMARK    1  A    between atoms: C1_1  and  C2_2
REMARK    2  A    between atoms: C2_2  and  O2_4
REMARK    3  A    between atoms: O2_4  and  C3_5
REMARK    4  A    between atoms: C7_11  and  C21_27
REMARK    5  A    between atoms: C11_15  and  C19_25
REMARK    6  A    between atoms: C11_15  and  C20_26
REMARK    7  A    between atoms: C15_20  and  C18_24
REMARK                            x       y       z     vdW  Elec       q    Type
REMARK                         _______ _______ _______ _____ _____    ______ ____
ROOT
ATOM      4  C   UNL     1      46.536  15.641  18.494  0.00  0.00    +0.175 C 
ATOM      5  C   UNL     1      46.504  16.803  17.463  0.00  0.00    +0.035 C 
ATOM      6  C   UNL     1      45.874  18.048  18.075  0.00  0.00    +0.039 C 
ATOM      7  C   UNL     1      46.717  19.106  18.750  0.00  0.00    -0.043 C 
ATOM      8  C   UNL     1      45.818  19.994  19.630  0.00  0.00    -0.030 C 
ATOM      9  C   UNL     1      44.593  20.340  18.754  0.00  0.00    +0.016 C 
ATOM     10  C   UNL     1      45.329  19.209  20.844  0.00  0.00    +0.015 C 
ATOM     11  C   UNL     1      44.422  20.068  21.723  0.00  0.00    +0.001 C 
ATOM     12  C   UNL     1      45.194  21.287  22.222  0.00  0.00    +0.014 C 
ATOM     13  C   UNL     1      45.699  22.124  21.048  0.00  0.00    -0.051 C 
ATOM     14  C   UNL     1      44.528  22.849  20.379  0.00  0.00    +0.021 C 
ATOM     15  C   UNL     1      46.589  23.244  21.633  0.00  0.00    +0.014 C 
ATOM     16  C   UNL     1      46.508  21.279  20.075  0.00  0.00    +0.012 C 
ATOM     17  C   UNL     1      47.846  20.897  20.724  0.00  0.00    +0.022 C 
ATOM     18  C   UNL     1      48.732  20.298  19.633  0.00  0.00    +0.024 C 
ATOM     19  C   UNL     1      48.125  18.948  19.181  0.00  0.00    +0.133 C 
ATOM     20  C   UNL     1      49.028  18.494  18.005  0.00  0.00    +0.019 C 
ATOM     21  O   UNL     1      48.292  18.060  20.316  0.00  0.00    -0.351 OA
ATOM     22  C   UNL     1      47.243  17.124  20.397  0.00  0.00    +0.215 C 
ATOM     23  C   UNL     1      47.571  15.950  19.513  0.00  0.00    -0.034 C 
ENDROOT
BRANCH   4   3
ATOM      3  O   UNL     1      46.858  14.414  17.835  0.00  0.00    -0.348 OA
BRANCH   3   2
ATOM      1  C   UNL     1      45.088  13.278  19.129  0.00  0.00    +0.155 C 
ATOM      2  C   UNL     1      45.946  13.431  17.899  0.00  0.00    +0.458 C 
ATOM     24  O   UNL     1      45.814  12.667  16.972  0.00  0.00    -0.511 OA
ENDBRANCH   3   2
ENDBRANCH   4   3
TORSDOF 2
ENDMDL
MODEL 7
REMARK VINA RESULT:      -5.6      1.932      3.934
REMARK  Name = ZINC95486253
REMARK  7 active torsions:
REMARK  status: ('A' for Active; 'I' for Inactive)
REMARK    1  A    between atoms: C1_1  and  C2_2
REMARK    2  A    between atoms: C2_2  and  O2_4
REMARK    3  A    between atoms: O2_4  and  C3_5
REMARK    4  A    between atoms: C7_11  and  C21_27
REMARK    5  A    between atoms: C11_15  and  C19_25
REMARK    6  A    between atoms: C11_15  and  C20_26
REMARK    7  A    between atoms: C15_20  and  C18_24
REMARK                            x       y       z     vdW  Elec       q    Type
REMARK                         _______ _______ _______ _____ _____    ______ ____
ROOT
ATOM      4  C   UNL     1      44.663  18.865  19.944  0.00  0.00    +0.175 C 
ATOM      5  C   UNL     1      45.246  19.510  18.657  0.00  0.00    +0.035 C 
ATOM      6  C   UNL     1      46.721  19.843  18.842  0.00  0.00    +0.039 C 
ATOM      7  C   UNL     1      47.804  18.864  18.448  0.00  0.00    -0.043 C 
ATOM      8  C   UNL     1      49.127  19.263  19.127  0.00  0.00    -0.030 C 
ATOM      9  C   UNL     1      49.263  20.786  18.907  0.00  0.00    +0.016 C 
ATOM     10  C   UNL     1      49.047  19.002  20.629  0.00  0.00    +0.015 C 
ATOM     11  C   UNL     1      50.346  19.406  21.324  0.00  0.00    +0.001 C 
ATOM     12  C   UNL     1      51.507  18.591  20.760  0.00  0.00    +0.014 C 
ATOM     13  C   UNL     1      51.647  18.820  19.256  0.00  0.00    -0.051 C 
ATOM     14  C   UNL     1      52.199  20.224  18.990  0.00  0.00    +0.021 C 
ATOM     15  C   UNL     1      52.737  17.851  18.745  0.00  0.00    +0.014 C 
ATOM     16  C   UNL     1      50.336  18.550  18.532  0.00  0.00    +0.012 C 
ATOM     17  C   UNL     1      50.050  17.041  18.545  0.00  0.00    +0.022 C 
ATOM     18  C   UNL     1      48.892  16.784  17.581  0.00  0.00    +0.024 C 
ATOM     19  C   UNL     1      47.608  17.424  18.161  0.00  0.00    +0.133 C 
ATOM     20  C   UNL     1      46.539  17.208  17.060  0.00  0.00    +0.019 C 
ATOM     21  O   UNL     1      47.289  16.633  19.334  0.00  0.00    -0.351 OA
ATOM     22  C   UNL     1      46.680  17.416  20.335  0.00  0.00    +0.215 C 
ATOM     23  C   UNL     1      45.201  17.486  20.060  0.00  0.00    -0.034 C 
ENDROOT
BRANCH   4   3
ATOM      3  O   UNL     1      43.236  18.823  19.865  0.00  0.00    -0.348 OA
BRANCH   3   2
ATOM      1  C   UNL     1      41.064  18.863  21.039  0.00  0.00    +0.155 C 
ATOM      2  C   UNL     1      42.556  19.075  20.995  0.00  0.00    +0.458 C 
ATOM     24  O   UNL     1      43.138  19.472  21.976  0.00  0.00    -0.511 OA
ENDBRANCH   3   2
ENDBRANCH   4   3
TORSDOF 2
ENDMDL
MODEL 8
REMARK VINA RESULT:      -5.5      3.788      5.891
REMARK  Name = ZINC95486253
REMARK  7 active torsions:
REMARK  status: ('A' for Active; 'I' for Inactive)
REMARK    1  A    between atoms: C1_1  and  C2_2
REMARK    2  A    between atoms: C2_2  and  O2_4
REMARK    3  A    between atoms: O2_4  and  C3_5
REMARK    4  A    between atoms: C7_11  and  C21_27
REMARK    5  A    between atoms: C11_15  and  C19_25
REMARK    6  A    between atoms: C11_15  and  C20_26
REMARK    7  A    between atoms: C15_20  and  C18_24
REMARK                            x       y       z     vdW  Elec       q    Type
REMARK                         _______ _______ _______ _____ _____    ______ ____
ROOT
ATOM      4  C   UNL     1      47.176  14.647  17.103  0.00  0.00    +0.175 C 
ATOM      5  C   UNL     1      47.967  14.618  18.440  0.00  0.00    +0.035 C 
ATOM      6  C   UNL     1      49.178  15.539  18.369  0.00  0.00    +0.039 C 
ATOM      7  C   UNL     1      49.101  16.979  18.825  0.00  0.00    -0.043 C 
ATOM      8  C   UNL     1      50.295  17.763  18.250  0.00  0.00    -0.030 C 
ATOM      9  C   UNL     1      51.534  16.876  18.505  0.00  0.00    +0.016 C 
ATOM     10  C   UNL     1      50.135  17.937  16.743  0.00  0.00    +0.015 C 
ATOM     11  C   UNL     1      51.318  18.701  16.151  0.00  0.00    +0.001 C 
ATOM     12  C   UNL     1      51.405  20.086  16.784  0.00  0.00    +0.014 C 
ATOM     13  C   UNL     1      51.582  19.978  18.298  0.00  0.00    -0.051 C 
ATOM     14  C   UNL     1      52.993  19.483  18.627  0.00  0.00    +0.021 C 
ATOM     15  C   UNL     1      51.510  21.411  18.872  0.00  0.00    +0.014 C 
ATOM     16  C   UNL     1      50.491  19.119  18.920  0.00  0.00    +0.012 C 
ATOM     17  C   UNL     1      49.154  19.873  18.862  0.00  0.00    +0.022 C 
ATOM     18  C   UNL     1      48.158  19.110  19.734  0.00  0.00    +0.024 C 
ATOM     19  C   UNL     1      47.857  17.744  19.072  0.00  0.00    +0.133 C 
ATOM     20  C   UNL     1      46.941  17.017  20.089  0.00  0.00    +0.019 C 
ATOM     21  O   UNL     1      47.118  18.063  17.866  0.00  0.00    -0.351 OA
ATOM     22  C   UNL     1      47.385  17.139  16.838  0.00  0.00    +0.215 C 
ATOM     23  C   UNL     1      46.473  15.952  17.005  0.00  0.00    -0.034 C 
ENDROOT
BRANCH   4   3
ATOM      3  O   UNL     1      46.223  13.582  17.078  0.00  0.00    -0.348 OA
BRANCH   3   2
ATOM      1  C   UNL     1      47.655  12.447  15.416  0.00  0.00    +0.155 C 
ATOM      2  C   UNL     1      46.611  12.432  16.503  0.00  0.00    +0.458 C 
ATOM     24  O   UNL     1      46.123  11.384  16.857  0.00  0.00    -0.511 OA
ENDBRANCH   3   2
ENDBRANCH   4   3
TORSDOF 2
ENDMDL
MODEL 9
REMARK VINA RESULT:      -5.3      2.730      6.710
REMARK  Name = ZINC95486253
REMARK  7 active torsions:
REMARK  status: ('A' for Active; 'I' for Inactive)
REMARK    1  A    between atoms: C1_1  and  C2_2
REMARK    2  A    between atoms: C2_2  and  O2_4
REMARK    3  A    between atoms: O2_4  and  C3_5
REMARK    4  A    between atoms: C7_11  and  C21_27
REMARK    5  A    between atoms: C11_15  and  C19_25
REMARK    6  A    between atoms: C11_15  and  C20_26
REMARK    7  A    between atoms: C15_20  and  C18_24
REMARK                            x       y       z     vdW  Elec       q    Type
REMARK                         _______ _______ _______ _____ _____    ______ ____
ROOT
ATOM      4  C   UNL     1      49.992  18.582  17.854  0.00  0.00    +0.175 C 
ATOM      5  C   UNL     1      50.056  18.582  19.406  0.00  0.00    +0.035 C 
ATOM      6  C   UNL     1      48.744  19.080  19.998  0.00  0.00    +0.039 C 
ATOM      7  C   UNL     1      47.635  18.122  20.371  0.00  0.00    -0.043 C 
ATOM      8  C   UNL     1      46.315  18.900  20.524  0.00  0.00    -0.030 C 
ATOM      9  C   UNL     1      46.662  20.141  21.375  0.00  0.00    +0.016 C 
ATOM     10  C   UNL     1      45.825  19.379  19.160  0.00  0.00    +0.015 C 
ATOM     11  C   UNL     1      44.523  20.167  19.292  0.00  0.00    +0.001 C 
ATOM     12  C   UNL     1      43.442  19.278  19.901  0.00  0.00    +0.014 C 
ATOM     13  C   UNL     1      43.870  18.776  21.280  0.00  0.00    -0.051 C 
ATOM     14  C   UNL     1      43.824  19.924  22.292  0.00  0.00    +0.021 C 
ATOM     15  C   UNL     1      42.796  17.772  21.755  0.00  0.00    +0.014 C 
ATOM     16  C   UNL     1      45.227  18.090  21.220  0.00  0.00    +0.012 C 
ATOM     17  C   UNL     1      45.087  16.751  20.482  0.00  0.00    +0.022 C 
ATOM     18  C   UNL     1      46.388  15.976  20.687  0.00  0.00    +0.024 C 
ATOM     19  C   UNL     1      47.529  16.708  19.942  0.00  0.00    +0.133 C 
ATOM     20  C   UNL     1      48.806  15.910  20.312  0.00  0.00    +0.019 C 
ATOM     21  O   UNL     1      47.226  16.547  18.533  0.00  0.00    -0.351 OA
ATOM     22  C   UNL     1      47.655  17.659  17.782  0.00  0.00    +0.215 C 
ATOM     23  C   UNL     1      49.105  17.471  17.424  0.00  0.00    -0.034 C 
ENDROOT
BRANCH   4   3
ATOM      3  O   UNL     1      51.302  18.392  17.313  0.00  0.00    -0.348 OA
BRANCH   3   2
ATOM      1  C   UNL     1      51.627  20.777  16.759  0.00  0.00    +0.155 C 
ATOM      2  C   UNL     1      51.736  19.309  16.433  0.00  0.00    +0.458 C 
ATOM     24  O   UNL     1      52.212  18.959  15.380  0.00  0.00    -0.511 OA
ENDBRANCH   3   2
ENDBRANCH   4   3
TORSDOF 2
ENDMDL
