MODEL 1
REMARK VINA RESULT:      -6.5      0.000      0.000
REMARK  Name = ZINC95485889
REMARK  16 active torsions:
REMARK  status: ('A' for Active; 'I' for Inactive)
REMARK    1  A    between atoms: C1_1  and  N1_2
REMARK    2  A    between atoms: C6_7  and  O6_49
REMARK    3  A    between atoms: C7_8  and  C18_21
REMARK    4  A    between atoms: C10_11  and  C11_13
REMARK    5  A    between atoms: C11_13  and  C12_14
REMARK    6  A    between atoms: C15_17  and  O1_20
REMARK    7  A    between atoms: C18_21  and  C19_22
REMARK    8  A    between atoms: C23_26  and  O3_30
REMARK    9  A    between atoms: C24_27  and  O2_28
REMARK   10  A    between atoms: O2_28  and  C25_29
REMARK   11  A    between atoms: O3_30  and  C26_31
REMARK   12  A    between atoms: C30_36  and  O5_47
REMARK   13  A    between atoms: C31_37  and  O4_46
REMARK   14  A    between atoms: N2_44  and  C37_45
REMARK   15  A    between atoms: O5_47  and  C38_48
REMARK   16  A    between atoms: O6_49  and  C39_50
REMARK                            x       y       z     vdW  Elec       q    Type
REMARK                         _______ _______ _______ _____ _____    ______ ____
ROOT
ATOM     13  C   UNL     1      45.469  17.512  19.196  0.00  0.00    -0.069 A 
ATOM     14  C   UNL     1      46.652  16.944  18.726  0.00  0.00    -0.056 A 
ATOM     15  C   UNL     1      47.323  16.027  19.485  0.00  0.00    -0.109 A 
ATOM     16  C   UNL     1      48.613  15.364  19.124  0.00  0.00    +0.296 C 
ATOM     17  C   UNL     1      49.696  16.277  18.660  0.00  0.00    -0.098 A 
ATOM     18  C   UNL     1      50.832  16.543  19.393  0.00  0.00    -0.011 A 
ATOM     19  C   UNL     1      51.801  17.387  18.871  0.00  0.00    +0.125 A 
ATOM     22  C   UNL     1      51.630  17.960  17.614  0.00  0.00    +0.112 A 
ATOM     25  C   UNL     1      50.478  17.696  16.884  0.00  0.00    +0.057 A 
ATOM     26  C   UNL     1      49.520  16.870  17.415  0.00  0.00    -0.106 A 
ATOM     27  C   UNL     1      48.211  16.563  16.751  0.00  0.00    +0.074 C 
ATOM     28  C   UNL     1      47.960  15.063  16.783  0.00  0.00    +0.261 C 
ATOM     29  N   UNL     1      48.322  14.425  18.024  0.00  0.00    -0.377 N 
ATOM     30  H   UNL     1      47.556  13.830  18.299  0.00  0.00    +0.428 HD
ATOM     31  C   UNL     1      49.506  13.586  17.794  0.00  0.00    +0.320 C 
ATOM     32  C   UNL     1      46.793  15.660  20.728  0.00  0.00    -0.048 A 
ATOM     33  C   UNL     1      45.622  16.215  21.198  0.00  0.00    +0.121 A 
ATOM     36  C   UNL     1      47.113  17.386  17.376  0.00  0.00    +0.103 C 
ATOM     37  C   UNL     1      44.952  17.162  20.427  0.00  0.00    +0.123 A 
ENDROOT
BRANCH  19  20
ATOM     20  O   UNL     1      52.924  17.655  19.590  0.00  0.00    -0.294 OA
ATOM     21  C   UNL     1      52.877  17.383  20.991  0.00  0.00    +0.254 C 
ENDBRANCH  19  20
BRANCH  22  23
ATOM     23  O   UNL     1      52.588  18.778  17.101  0.00  0.00    -0.481 OA
ATOM     24  H   UNL     1      52.972  18.462  16.272  0.00  0.00    +0.400 HD
ENDBRANCH  22  23
BRANCH  33  34
ATOM     34  O   UNL     1      45.126  15.844  22.409  0.00  0.00    -0.295 OA
ATOM     35  C   UNL     1      44.560  14.536  22.505  0.00  0.00    +0.251 C 
ENDBRANCH  33  34
BRANCH  37  38
ATOM     38  O   UNL     1      43.802  17.729  20.879  0.00  0.00    -0.300 OA
ATOM     39  C   UNL     1      43.865  18.419  22.129  0.00  0.00    +0.236 C 
ENDBRANCH  37  38
BRANCH  13  12
ATOM     12  C   UNL     1      44.745  18.528  18.349  0.00  0.00    +0.153 C 
BRANCH  12  11
ATOM      1  C   UNL     1      47.954  23.739  22.456  0.00  0.00    +0.326 C 
ATOM      2  N   UNL     1      46.709  23.120  21.985  0.00  0.00    -0.384 N 
ATOM      3  H   UNL     1      46.235  22.678  22.759  0.00  0.00    +0.422 HD
ATOM      4  C   UNL     1      45.838  24.150  21.397  0.00  0.00    +0.272 C 
ATOM      5  C   UNL     1      44.444  23.556  21.197  0.00  0.00    +0.119 C 
ATOM      6  C   UNL     1      44.550  22.246  20.457  0.00  0.00    -0.036 A 
ATOM      7  C   UNL     1      43.408  21.718  19.876  0.00  0.00    -0.059 A 
ATOM      8  C   UNL     1      43.466  20.515  19.191  0.00  0.00    +0.177 A 
ATOM     11  C   UNL     1      44.673  19.838  19.090  0.00  0.00    -0.104 A 
ATOM     40  C   UNL     1      45.807  20.368  19.669  0.00  0.00    +0.077 A 
ATOM     41  C   UNL     1      45.750  21.574  20.353  0.00  0.00    -0.163 A 
ATOM     42  C   UNL     1      47.016  22.116  20.963  0.00  0.00    +0.237 C 
BRANCH   8   9
ATOM      9  O   UNL     1      42.345  20.000  18.622  0.00  0.00    -0.277 OA
ATOM     10  C   UNL     1      41.343  19.493  19.506  0.00  0.00    +0.249 C 
ENDBRANCH   8   9
BRANCH  42  43
ATOM     43  C   UNL     1      47.800  20.968  21.602  0.00  0.00    +0.117 C 
BRANCH  43  44
ATOM     44  C   UNL     1      49.182  20.911  21.003  0.00  0.00    -0.131 A 
ATOM     45  C   UNL     1      49.340  20.898  19.629  0.00  0.00    +0.011 A 
ATOM     46  C   UNL     1      50.605  20.844  19.078  0.00  0.00    +0.004 A 
ATOM     47  C   UNL     1      51.719  20.804  19.905  0.00  0.00    +0.128 A 
ATOM     50  C   UNL     1      51.558  20.817  21.283  0.00  0.00    -0.011 A 
ATOM     51  C   UNL     1      50.290  20.875  21.829  0.00  0.00    +0.055 A 
BRANCH  47  48
ATOM     48  O   UNL     1      52.965  20.751  19.365  0.00  0.00    -0.498 OA
ATOM     49  H   UNL     1      53.075  20.061  18.698  0.00  0.00    +0.400 HD
ENDBRANCH  47  48
ENDBRANCH  43  44
ENDBRANCH  42  43
ENDBRANCH  12  11
ENDBRANCH  13  12
TORSDOF 10
ENDMDL
MODEL 2
REMARK VINA RESULT:      -6.2      2.628      6.761
REMARK  Name = ZINC95485889
REMARK  16 active torsions:
REMARK  status: ('A' for Active; 'I' for Inactive)
REMARK    1  A    between atoms: C1_1  and  N1_2
REMARK    2  A    between atoms: C6_7  and  O6_49
REMARK    3  A    between atoms: C7_8  and  C18_21
REMARK    4  A    between atoms: C10_11  and  C11_13
REMARK    5  A    between atoms: C11_13  and  C12_14
REMARK    6  A    between atoms: C15_17  and  O1_20
REMARK    7  A    between atoms: C18_21  and  C19_22
REMARK    8  A    between atoms: C23_26  and  O3_30
REMARK    9  A    between atoms: C24_27  and  O2_28
REMARK   10  A    between atoms: O2_28  and  C25_29
REMARK   11  A    between atoms: O3_30  and  C26_31
REMARK   12  A    between atoms: C30_36  and  O5_47
REMARK   13  A    between atoms: C31_37  and  O4_46
REMARK   14  A    between atoms: N2_44  and  C37_45
REMARK   15  A    between atoms: O5_47  and  C38_48
REMARK   16  A    between atoms: O6_49  and  C39_50
REMARK                            x       y       z     vdW  Elec       q    Type
REMARK                         _______ _______ _______ _____ _____    ______ ____
ROOT
ATOM     13  C   UNL     1      46.959  17.038  20.345  0.00  0.00    -0.069 A 
ATOM     14  C   UNL     1      45.942  17.993  20.332  0.00  0.00    -0.056 A 
ATOM     15  C   UNL     1      45.394  18.395  19.147  0.00  0.00    -0.109 A 
ATOM     16  C   UNL     1      44.326  19.428  18.979  0.00  0.00    +0.296 C 
ATOM     17  C   UNL     1      44.558  20.713  19.698  0.00  0.00    -0.098 A 
ATOM     18  C   UNL     1      44.847  21.899  19.062  0.00  0.00    -0.011 A 
ATOM     19  C   UNL     1      45.022  23.053  19.811  0.00  0.00    +0.125 A 
ATOM     22  C   UNL     1      44.905  23.015  21.198  0.00  0.00    +0.112 A 
ATOM     25  C   UNL     1      44.624  21.813  21.835  0.00  0.00    +0.057 A 
ATOM     26  C   UNL     1      44.465  20.676  21.086  0.00  0.00    -0.106 A 
ATOM     27  C   UNL     1      44.223  19.313  21.664  0.00  0.00    +0.074 C 
ATOM     28  C   UNL     1      43.072  18.642  20.930  0.00  0.00    +0.261 C 
ATOM     29  N   UNL     1      43.076  18.844  19.502  0.00  0.00    -0.377 N 
ATOM     30  H   UNL     1      42.928  17.948  19.064  0.00  0.00    +0.428 HD
ATOM     31  C   UNL     1      41.958  19.729  19.149  0.00  0.00    +0.320 C 
ATOM     32  C   UNL     1      45.859  17.821  17.957  0.00  0.00    -0.048 A 
ATOM     33  C   UNL     1      46.861  16.874  17.963  0.00  0.00    +0.121 A 
ATOM     36  C   UNL     1      45.504  18.519  21.659  0.00  0.00    +0.103 C 
ATOM     37  C   UNL     1      47.427  16.482  19.172  0.00  0.00    +0.123 A 
ENDROOT
BRANCH  19  20
ATOM     20  O   UNL     1      45.308  24.227  19.188  0.00  0.00    -0.294 OA
ATOM     21  C   UNL     1      44.228  24.897  18.535  0.00  0.00    +0.254 C 
ENDBRANCH  19  20
BRANCH  22  23
ATOM     23  O   UNL     1      45.067  24.151  21.927  0.00  0.00    -0.481 OA
ATOM     24  H   UNL     1      45.305  24.926  21.400  0.00  0.00    +0.400 HD
ENDBRANCH  22  23
BRANCH  33  34
ATOM     34  O   UNL     1      47.297  16.332  16.795  0.00  0.00    -0.295 OA
ATOM     35  C   UNL     1      46.626  15.157  16.334  0.00  0.00    +0.251 C 
ENDBRANCH  33  34
BRANCH  37  38
ATOM     38  O   UNL     1      48.425  15.558  19.198  0.00  0.00    -0.300 OA
ATOM     39  C   UNL     1      48.049  14.203  19.451  0.00  0.00    +0.236 C 
ENDBRANCH  37  38
BRANCH  13  12
ATOM     12  C   UNL     1      47.559  16.611  21.661  0.00  0.00    +0.153 C 
BRANCH  12  11
ATOM      1  C   UNL     1      52.342  22.150  20.788  0.00  0.00    +0.326 C 
ATOM      2  N   UNL     1      52.130  20.708  20.972  0.00  0.00    -0.384 N 
ATOM      3  H   UNL     1      52.415  20.215  20.139  0.00  0.00    +0.422 HD
ATOM      4  C   UNL     1      52.920  20.236  22.119  0.00  0.00    +0.272 C 
ATOM      5  C   UNL     1      52.933  18.707  22.108  0.00  0.00    +0.119 C 
ATOM      6  C   UNL     1      51.523  18.186  21.987  0.00  0.00    -0.036 A 
ATOM      7  C   UNL     1      51.277  16.859  22.300  0.00  0.00    -0.059 A 
ATOM      8  C   UNL     1      49.995  16.344  22.197  0.00  0.00    +0.177 A 
ATOM     11  C   UNL     1      48.956  17.163  21.778  0.00  0.00    -0.104 A 
ATOM     40  C   UNL     1      49.206  18.484  21.469  0.00  0.00    +0.077 A 
ATOM     41  C   UNL     1      50.489  19.000  21.573  0.00  0.00    -0.163 A 
ATOM     42  C   UNL     1      50.711  20.450  21.231  0.00  0.00    +0.237 C 
BRANCH   8   9
ATOM      9  O   UNL     1      49.756  15.043  22.505  0.00  0.00    -0.277 OA
ATOM     10  C   UNL     1      50.706  14.081  22.041  0.00  0.00    +0.249 C 
ENDBRANCH   8   9
BRANCH  42  43
ATOM     43  C   UNL     1      49.897  20.804  19.985  0.00  0.00    +0.117 C 
BRANCH  43  44
ATOM     44  C   UNL     1      50.517  20.149  18.778  0.00  0.00    -0.131 A 
ATOM     45  C   UNL     1      50.131  18.872  18.410  0.00  0.00    +0.011 A 
ATOM     46  C   UNL     1      50.698  18.269  17.305  0.00  0.00    +0.004 A 
ATOM     47  C   UNL     1      51.656  18.945  16.563  0.00  0.00    +0.128 A 
ATOM     50  C   UNL     1      52.042  20.224  16.933  0.00  0.00    -0.011 A 
ATOM     51  C   UNL     1      51.468  20.825  18.037  0.00  0.00    +0.055 A 
BRANCH  47  48
ATOM     48  O   UNL     1      52.215  18.352  15.475  0.00  0.00    -0.498 OA
ATOM     49  H   UNL     1      51.659  17.677  15.065  0.00  0.00    +0.400 HD
ENDBRANCH  47  48
ENDBRANCH  43  44
ENDBRANCH  42  43
ENDBRANCH  12  11
ENDBRANCH  13  12
TORSDOF 10
ENDMDL
MODEL 3
REMARK VINA RESULT:      -6.0      2.968      6.209
REMARK  Name = ZINC95485889
REMARK  16 active torsions:
REMARK  status: ('A' for Active; 'I' for Inactive)
REMARK    1  A    between atoms: C1_1  and  N1_2
REMARK    2  A    between atoms: C6_7  and  O6_49
REMARK    3  A    between atoms: C7_8  and  C18_21
REMARK    4  A    between atoms: C10_11  and  C11_13
REMARK    5  A    between atoms: C11_13  and  C12_14
REMARK    6  A    between atoms: C15_17  and  O1_20
REMARK    7  A    between atoms: C18_21  and  C19_22
REMARK    8  A    between atoms: C23_26  and  O3_30
REMARK    9  A    between atoms: C24_27  and  O2_28
REMARK   10  A    between atoms: O2_28  and  C25_29
REMARK   11  A    between atoms: O3_30  and  C26_31
REMARK   12  A    between atoms: C30_36  and  O5_47
REMARK   13  A    between atoms: C31_37  and  O4_46
REMARK   14  A    between atoms: N2_44  and  C37_45
REMARK   15  A    between atoms: O5_47  and  C38_48
REMARK   16  A    between atoms: O6_49  and  C39_50
REMARK                            x       y       z     vdW  Elec       q    Type
REMARK                         _______ _______ _______ _____ _____    ______ ____
ROOT
ATOM     13  C   UNL     1      50.232  14.406  20.113  0.00  0.00    -0.069 A 
ATOM     14  C   UNL     1      50.240  13.467  19.082  0.00  0.00    -0.056 A 
ATOM     15  C   UNL     1      51.171  13.548  18.086  0.00  0.00    -0.109 A 
ATOM     16  C   UNL     1      51.278  12.635  16.907  0.00  0.00    +0.296 C 
ATOM     17  C   UNL     1      50.008  12.394  16.165  0.00  0.00    -0.098 A 
ATOM     18  C   UNL     1      49.763  12.877  14.899  0.00  0.00    -0.011 A 
ATOM     19  C   UNL     1      48.561  12.581  14.274  0.00  0.00    +0.125 A 
ATOM     22  C   UNL     1      47.608  11.799  14.918  0.00  0.00    +0.112 A 
ATOM     25  C   UNL     1      47.855  11.323  16.199  0.00  0.00    +0.057 A 
ATOM     26  C   UNL     1      49.042  11.631  16.814  0.00  0.00    -0.106 A 
ATOM     27  C   UNL     1      49.394  11.229  18.215  0.00  0.00    +0.074 C 
ATOM     28  C   UNL     1      50.796  10.638  18.241  0.00  0.00    +0.261 C 
ATOM     29  N   UNL     1      51.751  11.332  17.414  0.00  0.00    -0.377 N 
ATOM     30  H   UNL     1      52.583  11.481  17.963  0.00  0.00    +0.428 HD
ATOM     31  C   UNL     1      52.091  10.476  16.269  0.00  0.00    +0.320 C 
ATOM     32  C   UNL     1      52.120  14.577  18.129  0.00  0.00    -0.048 A 
ATOM     33  C   UNL     1      52.121  15.507  19.147  0.00  0.00    +0.121 A 
ATOM     36  C   UNL     1      49.200  12.397  19.148  0.00  0.00    +0.103 C 
ATOM     37  C   UNL     1      51.158  15.429  20.149  0.00  0.00    +0.123 A 
ENDROOT
BRANCH  19  20
ATOM     20  O   UNL     1      48.314  13.057  13.024  0.00  0.00    -0.294 OA
ATOM     21  C   UNL     1      49.438  13.222  12.157  0.00  0.00    +0.254 C 
ENDBRANCH  19  20
BRANCH  22  23
ATOM     23  O   UNL     1      46.435  11.503  14.296  0.00  0.00    -0.481 OA
ATOM     24  H   UNL     1      46.288  11.998  13.479  0.00  0.00    +0.400 HD
ENDBRANCH  22  23
BRANCH  33  34
ATOM     34  O   UNL     1      53.052  16.498  19.167  0.00  0.00    -0.295 OA
ATOM     35  C   UNL     1      54.397  16.118  19.464  0.00  0.00    +0.251 C 
ENDBRANCH  33  34
BRANCH  37  38
ATOM     38  O   UNL     1      51.135  16.345  21.155  0.00  0.00    -0.300 OA
ATOM     39  C   UNL     1      51.946  16.073  22.300  0.00  0.00    +0.236 C 
ENDBRANCH  37  38
BRANCH  13  12
ATOM     12  C   UNL     1      49.192  14.307  21.201  0.00  0.00    +0.153 C 
BRANCH  12  11
ATOM      1  C   UNL     1      46.445  20.595  18.513  0.00  0.00    +0.326 C 
ATOM      2  N   UNL     1      46.224  19.386  19.317  0.00  0.00    -0.384 N 
ATOM      3  H   UNL     1      46.095  19.642  20.285  0.00  0.00    +0.422 HD
ATOM      4  C   UNL     1      45.029  18.681  18.828  0.00  0.00    +0.272 C 
ATOM      5  C   UNL     1      44.640  17.613  19.851  0.00  0.00    +0.119 C 
ATOM      6  C   UNL     1      45.842  16.769  20.189  0.00  0.00    -0.036 A 
ATOM      7  C   UNL     1      45.642  15.550  20.817  0.00  0.00    -0.059 A 
ATOM      8  C   UNL     1      46.723  14.749  21.147  0.00  0.00    +0.177 A 
ATOM     11  C   UNL     1      48.010  15.171  20.845  0.00  0.00    -0.104 A 
ATOM     40  C   UNL     1      48.204  16.384  20.217  0.00  0.00    +0.077 A 
ATOM     41  C   UNL     1      47.122  17.186  19.886  0.00  0.00    -0.163 A 
ATOM     42  C   UNL     1      47.383  18.499  19.196  0.00  0.00    +0.237 C 
BRANCH   8   9
ATOM      9  O   UNL     1      46.525  13.554  21.763  0.00  0.00    -0.277 OA
ATOM     10  C   UNL     1      45.193  13.260  22.193  0.00  0.00    +0.249 C 
ENDBRANCH   8   9
BRANCH  42  43
ATOM     43  C   UNL     1      48.602  19.170  19.834  0.00  0.00    +0.117 C 
BRANCH  43  44
ATOM     44  C   UNL     1      49.617  19.486  18.765  0.00  0.00    -0.131 A 
ATOM     45  C   UNL     1      50.095  20.776  18.627  0.00  0.00    +0.011 A 
ATOM     46  C   UNL     1      51.024  21.069  17.648  0.00  0.00    +0.004 A 
ATOM     47  C   UNL     1      51.478  20.066  16.802  0.00  0.00    +0.128 A 
ATOM     50  C   UNL     1      50.997  18.773  16.942  0.00  0.00    -0.011 A 
ATOM     51  C   UNL     1      50.071  18.485  17.927  0.00  0.00    +0.055 A 
BRANCH  47  48
ATOM     48  O   UNL     1      52.392  20.352  15.838  0.00  0.00    -0.498 OA
ATOM     49  H   UNL     1      53.296  20.096  16.065  0.00  0.00    +0.400 HD
ENDBRANCH  47  48
ENDBRANCH  43  44
ENDBRANCH  42  43
ENDBRANCH  12  11
ENDBRANCH  13  12
TORSDOF 10
ENDMDL
MODEL 4
REMARK VINA RESULT:      -5.4      3.008      6.818
REMARK  Name = ZINC95485889
REMARK  16 active torsions:
REMARK  status: ('A' for Active; 'I' for Inactive)
REMARK    1  A    between atoms: C1_1  and  N1_2
REMARK    2  A    between atoms: C6_7  and  O6_49
REMARK    3  A    between atoms: C7_8  and  C18_21
REMARK    4  A    between atoms: C10_11  and  C11_13
REMARK    5  A    between atoms: C11_13  and  C12_14
REMARK    6  A    between atoms: C15_17  and  O1_20
REMARK    7  A    between atoms: C18_21  and  C19_22
REMARK    8  A    between atoms: C23_26  and  O3_30
REMARK    9  A    between atoms: C24_27  and  O2_28
REMARK   10  A    between atoms: O2_28  and  C25_29
REMARK   11  A    between atoms: O3_30  and  C26_31
REMARK   12  A    between atoms: C30_36  and  O5_47
REMARK   13  A    between atoms: C31_37  and  O4_46
REMARK   14  A    between atoms: N2_44  and  C37_45
REMARK   15  A    between atoms: O5_47  and  C38_48
REMARK   16  A    between atoms: O6_49  and  C39_50
REMARK                            x       y       z     vdW  Elec       q    Type
REMARK                         _______ _______ _______ _____ _____    ______ ____
ROOT
ATOM     13  C   UNL     1      50.472  18.105  19.802  0.00  0.00    -0.069 A 
ATOM     14  C   UNL     1      51.179  16.923  20.019  0.00  0.00    -0.056 A 
ATOM     15  C   UNL     1      51.774  16.277  18.973  0.00  0.00    -0.109 A 
ATOM     16  C   UNL     1      52.532  14.991  19.051  0.00  0.00    +0.296 C 
ATOM     17  C   UNL     1      51.850  13.888  19.786  0.00  0.00    -0.098 A 
ATOM     18  C   UNL     1      51.351  12.760  19.172  0.00  0.00    -0.011 A 
ATOM     19  C   UNL     1      50.754  11.771  19.939  0.00  0.00    +0.125 A 
ATOM     22  C   UNL     1      50.659  11.914  21.321  0.00  0.00    +0.112 A 
ATOM     25  C   UNL     1      51.154  13.059  21.933  0.00  0.00    +0.057 A 
ATOM     26  C   UNL     1      51.732  14.036  21.164  0.00  0.00    -0.106 A 
ATOM     27  C   UNL     1      52.243  15.339  21.702  0.00  0.00    +0.074 C 
ATOM     28  C   UNL     1      53.634  15.612  21.148  0.00  0.00    +0.261 C 
ATOM     29  N   UNL     1      53.797  15.279  19.755  0.00  0.00    -0.377 N 
ATOM     30  H   UNL     1      54.250  16.057  19.303  0.00  0.00    +0.428 HD
ATOM     31  C   UNL     1      54.672  14.103  19.652  0.00  0.00    +0.320 C 
ATOM     32  C   UNL     1      51.675  16.831  17.691  0.00  0.00    -0.048 A 
ATOM     33  C   UNL     1      50.981  18.002  17.469  0.00  0.00    +0.121 A 
ATOM     36  C   UNL     1      51.244  16.434  21.429  0.00  0.00    +0.103 C 
ATOM     37  C   UNL     1      50.362  18.646  18.537  0.00  0.00    +0.123 A 
ENDROOT
BRANCH  19  20
ATOM     20  O   UNL     1      50.258  10.656  19.339  0.00  0.00    -0.294 OA
ATOM     21  C   UNL     1      49.005  10.784  18.666  0.00  0.00    +0.254 C 
ENDBRANCH  19  20
BRANCH  22  23
ATOM     23  O   UNL     1      50.082  10.937  22.070  0.00  0.00    -0.481 OA
ATOM     24  H   UNL     1      50.588  10.113  22.098  0.00  0.00    +0.400 HD
ENDBRANCH  22  23
BRANCH  33  34
ATOM     34  O   UNL     1      50.897  18.521  16.215  0.00  0.00    -0.295 OA
ATOM     35  C   UNL     1      52.049  19.205  15.717  0.00  0.00    +0.251 C 
ENDBRANCH  33  34
BRANCH  37  38
ATOM     38  O   UNL     1      49.662  19.795  18.337  0.00  0.00    -0.300 OA
ATOM     39  C   UNL     1      50.391  21.022  18.419  0.00  0.00    +0.236 C 
ENDBRANCH  37  38
BRANCH  13  12
ATOM     12  C   UNL     1      49.814  18.801  20.967  0.00  0.00    +0.153 C 
BRANCH  12  11
ATOM      1  C   UNL     1      45.147  13.253  22.292  0.00  0.00    +0.326 C 
ATOM      2  N   UNL     1      45.351  14.603  21.750  0.00  0.00    -0.384 N 
ATOM      3  H   UNL     1      45.220  14.590  20.749  0.00  0.00    +0.422 HD
ATOM      4  C   UNL     1      44.387  15.530  22.362  0.00  0.00    +0.272 C 
ATOM      5  C   UNL     1      44.405  16.842  21.576  0.00  0.00    +0.119 C 
ATOM      6  C   UNL     1      45.823  17.329  21.428  0.00  0.00    -0.036 A 
ATOM      7  C   UNL     1      46.038  18.647  21.060  0.00  0.00    -0.059 A 
ATOM      8  C   UNL     1      47.328  19.130  20.910  0.00  0.00    +0.177 A 
ATOM     11  C   UNL     1      48.408  18.286  21.130  0.00  0.00    -0.104 A 
ATOM     40  C   UNL     1      48.190  16.975  21.498  0.00  0.00    +0.077 A 
ATOM     41  C   UNL     1      46.898  16.492  21.649  0.00  0.00    -0.163 A 
ATOM     42  C   UNL     1      46.710  15.055  22.059  0.00  0.00    +0.237 C 
BRANCH   8   9
ATOM      9  O   UNL     1      47.535  20.423  20.549  0.00  0.00    -0.277 OA
ATOM     10  C   UNL     1      46.501  21.060  19.796  0.00  0.00    +0.249 C 
ENDBRANCH   8   9
BRANCH  42  43
ATOM     43  C   UNL     1      47.716  14.181  21.307  0.00  0.00    +0.117 C 
BRANCH  43  44
ATOM     44  C   UNL     1      47.475  14.301  19.824  0.00  0.00    -0.131 A 
ATOM     45  C   UNL     1      48.352  15.028  19.039  0.00  0.00    +0.011 A 
ATOM     46  C   UNL     1      48.132  15.140  17.680  0.00  0.00    +0.004 A 
ATOM     47  C   UNL     1      47.032  14.522  17.103  0.00  0.00    +0.128 A 
ATOM     50  C   UNL     1      46.155  13.794  17.892  0.00  0.00    -0.011 A 
ATOM     51  C   UNL     1      46.381  13.681  19.251  0.00  0.00    +0.055 A 
BRANCH  47  48
ATOM     48  O   UNL     1      46.815  14.631  15.765  0.00  0.00    -0.498 OA
ATOM     49  H   UNL     1      45.880  14.643  15.519  0.00  0.00    +0.400 HD
ENDBRANCH  47  48
ENDBRANCH  43  44
ENDBRANCH  42  43
ENDBRANCH  12  11
ENDBRANCH  13  12
TORSDOF 10
ENDMDL
MODEL 5
REMARK VINA RESULT:      -5.3      2.768      9.214
REMARK  Name = ZINC95485889
REMARK  16 active torsions:
REMARK  status: ('A' for Active; 'I' for Inactive)
REMARK    1  A    between atoms: C1_1  and  N1_2
REMARK    2  A    between atoms: C6_7  and  O6_49
REMARK    3  A    between atoms: C7_8  and  C18_21
REMARK    4  A    between atoms: C10_11  and  C11_13
REMARK    5  A    between atoms: C11_13  and  C12_14
REMARK    6  A    between atoms: C15_17  and  O1_20
REMARK    7  A    between atoms: C18_21  and  C19_22
REMARK    8  A    between atoms: C23_26  and  O3_30
REMARK    9  A    between atoms: C24_27  and  O2_28
REMARK   10  A    between atoms: O2_28  and  C25_29
REMARK   11  A    between atoms: O3_30  and  C26_31
REMARK   12  A    between atoms: C30_36  and  O5_47
REMARK   13  A    between atoms: C31_37  and  O4_46
REMARK   14  A    between atoms: N2_44  and  C37_45
REMARK   15  A    between atoms: O5_47  and  C38_48
REMARK   16  A    between atoms: O6_49  and  C39_50
REMARK                            x       y       z     vdW  Elec       q    Type
REMARK                         _______ _______ _______ _____ _____    ______ ____
ROOT
ATOM     13  C   UNL     1      50.444  17.151  20.050  0.00  0.00    -0.069 A 
ATOM     14  C   UNL     1      49.177  16.974  19.495  0.00  0.00    -0.056 A 
ATOM     15  C   UNL     1      48.809  17.682  18.385  0.00  0.00    -0.109 A 
ATOM     16  C   UNL     1      47.480  17.619  17.705  0.00  0.00    +0.296 C 
ATOM     17  C   UNL     1      46.295  17.751  18.599  0.00  0.00    -0.098 A 
ATOM     18  C   UNL     1      45.468  18.852  18.608  0.00  0.00    -0.011 A 
ATOM     19  C   UNL     1      44.371  18.878  19.457  0.00  0.00    +0.125 A 
ATOM     22  C   UNL     1      44.105  17.798  20.293  0.00  0.00    +0.112 A 
ATOM     25  C   UNL     1      44.948  16.695  20.288  0.00  0.00    +0.057 A 
ATOM     26  C   UNL     1      46.037  16.685  19.454  0.00  0.00    -0.106 A 
ATOM     27  C   UNL     1      47.051  15.581  19.406  0.00  0.00    +0.074 C 
ATOM     28  C   UNL     1      47.313  15.189  17.960  0.00  0.00    +0.261 C 
ATOM     29  N   UNL     1      47.395  16.301  17.046  0.00  0.00    -0.377 N 
ATOM     30  H   UNL     1      48.215  16.171  16.475  0.00  0.00    +0.428 HD
ATOM     31  C   UNL     1      46.211  16.284  16.177  0.00  0.00    +0.320 C 
ATOM     32  C   UNL     1      49.729  18.568  17.813  0.00  0.00    -0.048 A 
ATOM     33  C   UNL     1      50.985  18.745  18.354  0.00  0.00    +0.121 A 
ATOM     36  C   UNL     1      48.286  15.985  20.170  0.00  0.00    +0.103 C 
ATOM     37  C   UNL     1      51.347  18.035  19.495  0.00  0.00    +0.123 A 
ENDROOT
BRANCH  19  20
ATOM     20  O   UNL     1      43.552  19.964  19.471  0.00  0.00    -0.294 OA
ATOM     21  C   UNL     1      42.562  20.044  18.443  0.00  0.00    +0.254 C 
ENDBRANCH  19  20
BRANCH  22  23
ATOM     23  O   UNL     1      43.021  17.824  21.116  0.00  0.00    -0.481 OA
ATOM     24  H   UNL     1      42.904  18.661  21.585  0.00  0.00    +0.400 HD
ENDBRANCH  22  23
BRANCH  33  34
ATOM     34  O   UNL     1      51.861  19.613  17.781  0.00  0.00    -0.295 OA
ATOM     35  C   UNL     1      51.318  20.816  17.232  0.00  0.00    +0.251 C 
ENDBRANCH  33  34
BRANCH  37  38
ATOM     38  O   UNL     1      52.577  18.205  20.051  0.00  0.00    -0.300 OA
ATOM     39  C   UNL     1      52.688  19.171  21.098  0.00  0.00    +0.236 C 
ENDBRANCH  37  38
BRANCH  13  12
ATOM     12  C   UNL     1      50.831  16.368  21.280  0.00  0.00    +0.153 C 
BRANCH  12  11
ATOM      1  C   UNL     1      52.427  10.279  17.448  0.00  0.00    +0.326 C 
ATOM      2  N   UNL     1      52.754  11.157  18.578  0.00  0.00    -0.384 N 
ATOM      3  H   UNL     1      52.582  10.671  19.446  0.00  0.00    +0.422 HD
ATOM      4  C   UNL     1      54.171  11.547  18.505  0.00  0.00    +0.272 C 
ATOM      5  C   UNL     1      54.568  12.195  19.832  0.00  0.00    +0.119 C 
ATOM      6  C   UNL     1      53.578  13.275  20.188  0.00  0.00    -0.036 A 
ATOM      7  C   UNL     1      53.930  14.206  21.152  0.00  0.00    -0.059 A 
ATOM      8  C   UNL     1      53.045  15.210  21.510  0.00  0.00    +0.177 A 
ATOM     11  C   UNL     1      51.801  15.281  20.897  0.00  0.00    -0.104 A 
ATOM     40  C   UNL     1      51.456  14.353  19.937  0.00  0.00    +0.077 A 
ATOM     41  C   UNL     1      52.343  13.348  19.578  0.00  0.00    -0.163 A 
ATOM     42  C   UNL     1      51.924  12.362  18.520  0.00  0.00    +0.237 C 
BRANCH   8   9
ATOM      9  O   UNL     1      53.392  16.122  22.455  0.00  0.00    -0.277 OA
ATOM     10  C   UNL     1      54.764  16.520  22.498  0.00  0.00    +0.249 C 
ENDBRANCH   8   9
BRANCH  42  43
ATOM     43  C   UNL     1      50.459  11.978  18.741  0.00  0.00    +0.117 C 
BRANCH  43  44
ATOM     44  C   UNL     1      49.662  12.309  17.505  0.00  0.00    -0.131 A 
ATOM     45  C   UNL     1      50.212  13.114  16.523  0.00  0.00    +0.011 A 
ATOM     46  C   UNL     1      49.484  13.420  15.391  0.00  0.00    +0.004 A 
ATOM     47  C   UNL     1      48.199  12.918  15.238  0.00  0.00    +0.128 A 
ATOM     50  C   UNL     1      47.649  12.111  16.223  0.00  0.00    -0.011 A 
ATOM     51  C   UNL     1      48.384  11.805  17.352  0.00  0.00    +0.055 A 
BRANCH  47  48
ATOM     48  O   UNL     1      47.480  13.218  14.124  0.00  0.00    -0.498 OA
ATOM     49  H   UNL     1      47.303  14.161  14.012  0.00  0.00    +0.400 HD
ENDBRANCH  47  48
ENDBRANCH  43  44
ENDBRANCH  42  43
ENDBRANCH  12  11
ENDBRANCH  13  12
TORSDOF 10
ENDMDL
MODEL 6
REMARK VINA RESULT:      -5.2      2.391      7.028
REMARK  Name = ZINC95485889
REMARK  16 active torsions:
REMARK  status: ('A' for Active; 'I' for Inactive)
REMARK    1  A    between atoms: C1_1  and  N1_2
REMARK    2  A    between atoms: C6_7  and  O6_49
REMARK    3  A    between atoms: C7_8  and  C18_21
REMARK    4  A    between atoms: C10_11  and  C11_13
REMARK    5  A    between atoms: C11_13  and  C12_14
REMARK    6  A    between atoms: C15_17  and  O1_20
REMARK    7  A    between atoms: C18_21  and  C19_22
REMARK    8  A    between atoms: C23_26  and  O3_30
REMARK    9  A    between atoms: C24_27  and  O2_28
REMARK   10  A    between atoms: O2_28  and  C25_29
REMARK   11  A    between atoms: O3_30  and  C26_31
REMARK   12  A    between atoms: C30_36  and  O5_47
REMARK   13  A    between atoms: C31_37  and  O4_46
REMARK   14  A    between atoms: N2_44  and  C37_45
REMARK   15  A    between atoms: O5_47  and  C38_48
REMARK   16  A    between atoms: O6_49  and  C39_50
REMARK                            x       y       z     vdW  Elec       q    Type
REMARK                         _______ _______ _______ _____ _____    ______ ____
ROOT
ATOM     13  C   UNL     1      50.719  14.102  19.707  0.00  0.00    -0.069 A 
ATOM     14  C   UNL     1      49.330  14.226  19.678  0.00  0.00    -0.056 A 
ATOM     15  C   UNL     1      48.661  14.175  18.488  0.00  0.00    -0.109 A 
ATOM     16  C   UNL     1      47.184  14.325  18.304  0.00  0.00    +0.296 C 
ATOM     17  C   UNL     1      46.568  15.496  18.990  0.00  0.00    -0.098 A 
ATOM     18  C   UNL     1      46.069  16.592  18.322  0.00  0.00    -0.011 A 
ATOM     19  C   UNL     1      45.489  17.626  19.042  0.00  0.00    +0.125 A 
ATOM     22  C   UNL     1      45.408  17.558  20.430  0.00  0.00    +0.112 A 
ATOM     25  C   UNL     1      45.923  16.454  21.099  0.00  0.00    +0.057 A 
ATOM     26  C   UNL     1      46.506  15.443  20.378  0.00  0.00    -0.106 A 
ATOM     27  C   UNL     1      47.151  14.236  20.992  0.00  0.00    +0.074 C 
ATOM     28  C   UNL     1      46.665  12.981  20.284  0.00  0.00    +0.261 C 
ATOM     29  N   UNL     1      46.556  13.107  18.852  0.00  0.00    -0.377 N 
ATOM     30  H   UNL     1      46.996  12.301  18.437  0.00  0.00    +0.428 HD
ATOM     31  C   UNL     1      45.133  13.106  18.486  0.00  0.00    +0.320 C 
ATOM     32  C   UNL     1      49.390  13.981  17.309  0.00  0.00    -0.048 A 
ATOM     33  C   UNL     1      50.763  13.855  17.330  0.00  0.00    +0.121 A 
ATOM     36  C   UNL     1      48.649  14.402  20.996  0.00  0.00    +0.103 C 
ATOM     37  C   UNL     1      51.441  13.925  18.544  0.00  0.00    +0.123 A 
ENDROOT
BRANCH  19  20
ATOM     20  O   UNL     1      44.995  18.712  18.388  0.00  0.00    -0.294 OA
ATOM     21  C   UNL     1      45.838  19.863  18.313  0.00  0.00    +0.254 C 
ENDBRANCH  19  20
BRANCH  22  23
ATOM     23  O   UNL     1      44.828  18.569  21.130  0.00  0.00    -0.481 OA
ATOM     24  H   UNL     1      44.683  19.373  20.612  0.00  0.00    +0.400 HD
ENDBRANCH  22  23
BRANCH  33  34
ATOM     34  O   UNL     1      51.451  13.669  16.172  0.00  0.00    -0.295 OA
ATOM     35  C   UNL     1      50.824  12.870  15.166  0.00  0.00    +0.251 C 
ENDBRANCH  33  34
BRANCH  37  38
ATOM     38  O   UNL     1      52.796  13.814  18.584  0.00  0.00    -0.300 OA
ATOM     39  C   UNL     1      53.335  12.510  18.812  0.00  0.00    +0.236 C 
ENDBRANCH  37  38
BRANCH  13  12
ATOM     12  C   UNL     1      51.443  14.168  21.028  0.00  0.00    +0.153 C 
BRANCH  12  11
ATOM      1  C   UNL     1      49.539  21.268  21.554  0.00  0.00    +0.326 C 
ATOM      2  N   UNL     1      50.614  20.276  21.433  0.00  0.00    -0.384 N 
ATOM      3  H   UNL     1      51.066  20.373  20.535  0.00  0.00    +0.422 HD
ATOM      4  C   UNL     1      51.600  20.483  22.505  0.00  0.00    +0.272 C 
ATOM      5  C   UNL     1      52.848  19.659  22.188  0.00  0.00    +0.119 C 
ATOM      6  C   UNL     1      52.456  18.235  21.886  0.00  0.00    -0.036 A 
ATOM      7  C   UNL     1      53.436  17.256  21.913  0.00  0.00    -0.059 A 
ATOM      8  C   UNL     1      53.114  15.938  21.636  0.00  0.00    +0.177 A 
ATOM     11  C   UNL     1      51.803  15.599  21.331  0.00  0.00    -0.104 A 
ATOM     40  C   UNL     1      50.830  16.576  21.308  0.00  0.00    +0.077 A 
ATOM     41  C   UNL     1      51.152  17.897  21.586  0.00  0.00    -0.163 A 
ATOM     42  C   UNL     1      50.055  18.927  21.555  0.00  0.00    +0.237 C 
BRANCH   8   9
ATOM      9  O   UNL     1      54.077  14.980  21.663  0.00  0.00    -0.277 OA
ATOM     10  C   UNL     1      55.298  15.269  20.979  0.00  0.00    +0.249 C 
ENDBRANCH   8   9
BRANCH  42  43
ATOM     43  C   UNL     1      49.138  18.652  20.361  0.00  0.00    +0.117 C 
BRANCH  43  44
ATOM     44  C   UNL     1      49.957  18.619  19.096  0.00  0.00    -0.131 A 
ATOM     45  C   UNL     1      49.833  17.556  18.220  0.00  0.00    +0.011 A 
ATOM     46  C   UNL     1      50.583  17.523  17.061  0.00  0.00    +0.004 A 
ATOM     47  C   UNL     1      51.463  18.558  16.776  0.00  0.00    +0.128 A 
ATOM     50  C   UNL     1      51.586  19.623  17.656  0.00  0.00    -0.011 A 
ATOM     51  C   UNL     1      50.829  19.653  18.812  0.00  0.00    +0.055 A 
BRANCH  47  48
ATOM     48  O   UNL     1      52.202  18.528  15.636  0.00  0.00    -0.498 OA
ATOM     49  H   UNL     1      52.810  17.778  15.582  0.00  0.00    +0.400 HD
ENDBRANCH  47  48
ENDBRANCH  43  44
ENDBRANCH  42  43
ENDBRANCH  12  11
ENDBRANCH  13  12
TORSDOF 10
ENDMDL
MODEL 7
REMARK VINA RESULT:      -5.2      2.321      6.621
REMARK  Name = ZINC95485889
REMARK  16 active torsions:
REMARK  status: ('A' for Active; 'I' for Inactive)
REMARK    1  A    between atoms: C1_1  and  N1_2
REMARK    2  A    between atoms: C6_7  and  O6_49
REMARK    3  A    between atoms: C7_8  and  C18_21
REMARK    4  A    between atoms: C10_11  and  C11_13
REMARK    5  A    between atoms: C11_13  and  C12_14
REMARK    6  A    between atoms: C15_17  and  O1_20
REMARK    7  A    between atoms: C18_21  and  C19_22
REMARK    8  A    between atoms: C23_26  and  O3_30
REMARK    9  A    between atoms: C24_27  and  O2_28
REMARK   10  A    between atoms: O2_28  and  C25_29
REMARK   11  A    between atoms: O3_30  and  C26_31
REMARK   12  A    between atoms: C30_36  and  O5_47
REMARK   13  A    between atoms: C31_37  and  O4_46
REMARK   14  A    between atoms: N2_44  and  C37_45
REMARK   15  A    between atoms: O5_47  and  C38_48
REMARK   16  A    between atoms: O6_49  and  C39_50
REMARK                            x       y       z     vdW  Elec       q    Type
REMARK                         _______ _______ _______ _____ _____    ______ ____
ROOT
ATOM     13  C   UNL     1      46.234  18.495  19.553  0.00  0.00    -0.069 A 
ATOM     14  C   UNL     1      47.628  18.531  19.553  0.00  0.00    -0.056 A 
ATOM     15  C   UNL     1      48.286  19.667  19.931  0.00  0.00    -0.109 A 
ATOM     16  C   UNL     1      49.768  19.859  19.949  0.00  0.00    +0.296 C 
ATOM     17  C   UNL     1      50.483  19.451  18.706  0.00  0.00    -0.098 A 
ATOM     18  C   UNL     1      51.069  20.346  17.838  0.00  0.00    -0.011 A 
ATOM     19  C   UNL     1      51.736  19.875  16.717  0.00  0.00    +0.125 A 
ATOM     22  C   UNL     1      51.817  18.507  16.470  0.00  0.00    +0.112 A 
ATOM     25  C   UNL     1      51.215  17.610  17.344  0.00  0.00    +0.057 A 
ATOM     26  C   UNL     1      50.547  18.087  18.442  0.00  0.00    -0.106 A 
ATOM     27  C   UNL     1      49.806  17.223  19.418  0.00  0.00    +0.074 C 
ATOM     28  C   UNL     1      50.183  17.615  20.839  0.00  0.00    +0.261 C 
ATOM     29  N   UNL     1      50.295  19.036  21.055  0.00  0.00    -0.377 N 
ATOM     30  H   UNL     1      49.788  19.261  21.897  0.00  0.00    +0.428 HD
ATOM     31  C   UNL     1      51.712  19.370  21.258  0.00  0.00    +0.320 C 
ATOM     32  C   UNL     1      47.537  20.781  20.331  0.00  0.00    -0.048 A 
ATOM     33  C   UNL     1      46.159  20.752  20.336  0.00  0.00    +0.121 A 
ATOM     36  C   UNL     1      48.327  17.279  19.134  0.00  0.00    +0.103 C 
ATOM     37  C   UNL     1      45.495  19.597  19.933  0.00  0.00    +0.123 A 
ENDROOT
BRANCH  19  20
ATOM     20  O   UNL     1      52.316  20.753  15.856  0.00  0.00    -0.294 OA
ATOM     21  C   UNL     1      51.509  21.838  15.394  0.00  0.00    +0.254 C 
ENDBRANCH  19  20
BRANCH  22  23
ATOM     23  O   UNL     1      52.482  18.050  15.376  0.00  0.00    -0.481 OA
ATOM     24  H   UNL     1      52.518  17.086  15.312  0.00  0.00    +0.400 HD
ENDBRANCH  22  23
BRANCH  33  34
ATOM     34  O   UNL     1      45.453  21.847  20.727  0.00  0.00    -0.295 OA
ATOM     35  C   UNL     1      45.528  22.208  22.108  0.00  0.00    +0.251 C 
ENDBRANCH  33  34
BRANCH  37  38
ATOM     38  O   UNL     1      44.135  19.553  19.920  0.00  0.00    -0.300 OA
ATOM     39  C   UNL     1      43.480  20.065  18.758  0.00  0.00    +0.236 C 
ENDBRANCH  37  38
BRANCH  13  12
ATOM     12  C   UNL     1      45.523  17.236  19.124  0.00  0.00    +0.153 C 
BRANCH  12  11
ATOM      1  C   UNL     1      49.027  10.807  19.969  0.00  0.00    +0.326 C 
ATOM      2  N   UNL     1      48.042  11.764  20.490  0.00  0.00    -0.384 N 
ATOM      3  H   UNL     1      47.120  11.355  20.452  0.00  0.00    +0.422 HD
ATOM      4  C   UNL     1      48.374  12.102  21.883  0.00  0.00    +0.272 C 
ATOM      5  C   UNL     1      47.188  12.843  22.501  0.00  0.00    +0.119 C 
ATOM      6  C   UNL     1      46.771  13.979  21.602  0.00  0.00    -0.036 A 
ATOM      7  C   UNL     1      45.959  14.973  22.122  0.00  0.00    -0.059 A 
ATOM      8  C   UNL     1      45.552  16.031  21.325  0.00  0.00    +0.177 A 
ATOM     11  C   UNL     1      45.962  16.091  20.000  0.00  0.00    -0.104 A 
ATOM     40  C   UNL     1      46.772  15.099  19.487  0.00  0.00    +0.077 A 
ATOM     41  C   UNL     1      47.180  14.041  20.286  0.00  0.00    -0.163 A 
ATOM     42  C   UNL     1      48.070  12.986  19.683  0.00  0.00    +0.237 C 
BRANCH   8   9
ATOM      9  O   UNL     1      44.755  17.005  21.837  0.00  0.00    -0.277 OA
ATOM     10  C   UNL     1      43.418  16.635  22.180  0.00  0.00    +0.249 C 
ENDBRANCH   8   9
BRANCH  42  43
ATOM     43  C   UNL     1      47.587  12.667  18.267  0.00  0.00    +0.117 C 
BRANCH  43  44
ATOM     44  C   UNL     1      48.695  12.946  17.284  0.00  0.00    -0.131 A 
ATOM     45  C   UNL     1      48.642  12.406  16.012  0.00  0.00    +0.011 A 
ATOM     46  C   UNL     1      49.657  12.658  15.110  0.00  0.00    +0.004 A 
ATOM     47  C   UNL     1      50.731  13.455  15.482  0.00  0.00    +0.128 A 
ATOM     50  C   UNL     1      50.782  13.996  16.758  0.00  0.00    -0.011 A 
ATOM     51  C   UNL     1      49.761  13.744  17.655  0.00  0.00    +0.055 A 
BRANCH  47  48
ATOM     48  O   UNL     1      51.731  13.705  14.595  0.00  0.00    -0.498 OA
ATOM     49  H   UNL     1      51.799  13.053  13.885  0.00  0.00    +0.400 HD
ENDBRANCH  47  48
ENDBRANCH  43  44
ENDBRANCH  42  43
ENDBRANCH  12  11
ENDBRANCH  13  12
TORSDOF 10
ENDMDL
MODEL 8
REMARK VINA RESULT:      -5.1      2.512      8.318
REMARK  Name = ZINC95485889
REMARK  16 active torsions:
REMARK  status: ('A' for Active; 'I' for Inactive)
REMARK    1  A    between atoms: C1_1  and  N1_2
REMARK    2  A    between atoms: C6_7  and  O6_49
REMARK    3  A    between atoms: C7_8  and  C18_21
REMARK    4  A    between atoms: C10_11  and  C11_13
REMARK    5  A    between atoms: C11_13  and  C12_14
REMARK    6  A    between atoms: C15_17  and  O1_20
REMARK    7  A    between atoms: C18_21  and  C19_22
REMARK    8  A    between atoms: C23_26  and  O3_30
REMARK    9  A    between atoms: C24_27  and  O2_28
REMARK   10  A    between atoms: O2_28  and  C25_29
REMARK   11  A    between atoms: O3_30  and  C26_31
REMARK   12  A    between atoms: C30_36  and  O5_47
REMARK   13  A    between atoms: C31_37  and  O4_46
REMARK   14  A    between atoms: N2_44  and  C37_45
REMARK   15  A    between atoms: O5_47  and  C38_48
REMARK   16  A    between atoms: O6_49  and  C39_50
REMARK                            x       y       z     vdW  Elec       q    Type
REMARK                         _______ _______ _______ _____ _____    ______ ____
ROOT
ATOM     13  C   UNL     1      49.827  15.813  21.569  0.00  0.00    -0.069 A 
ATOM     14  C   UNL     1      48.679  16.318  20.961  0.00  0.00    -0.056 A 
ATOM     15  C   UNL     1      48.652  17.607  20.508  0.00  0.00    -0.109 A 
ATOM     16  C   UNL     1      47.485  18.289  19.869  0.00  0.00    +0.296 C 
ATOM     17  C   UNL     1      46.189  18.157  20.593  0.00  0.00    -0.098 A 
ATOM     18  C   UNL     1      45.568  19.203  21.238  0.00  0.00    -0.011 A 
ATOM     19  C   UNL     1      44.349  18.994  21.865  0.00  0.00    +0.125 A 
ATOM     22  C   UNL     1      43.753  17.736  21.841  0.00  0.00    +0.112 A 
ATOM     25  C   UNL     1      44.389  16.682  21.198  0.00  0.00    +0.057 A 
ATOM     26  C   UNL     1      45.600  16.897  20.591  0.00  0.00    -0.106 A 
ATOM     27  C   UNL     1      46.409  15.825  19.923  0.00  0.00    +0.074 C 
ATOM     28  C   UNL     1      46.875  16.312  18.559  0.00  0.00    +0.261 C 
ATOM     29  N   UNL     1      47.313  17.685  18.533  0.00  0.00    -0.377 N 
ATOM     30  H   UNL     1      48.194  17.719  18.046  0.00  0.00    +0.428 HD
ATOM     31  C   UNL     1      46.330  18.478  17.781  0.00  0.00    +0.320 C 
ATOM     32  C   UNL     1      49.797  18.399  20.653  0.00  0.00    -0.048 A 
ATOM     33  C   UNL     1      50.938  17.905  21.251  0.00  0.00    +0.121 A 
ATOM     36  C   UNL     1      47.524  15.380  20.834  0.00  0.00    +0.103 C 
ATOM     37  C   UNL     1      50.953  16.597  21.725  0.00  0.00    +0.123 A 
ENDROOT
BRANCH  19  20
ATOM     20  O   UNL     1      43.732  20.023  22.505  0.00  0.00    -0.294 OA
ATOM     21  C   UNL     1      44.393  21.289  22.486  0.00  0.00    +0.254 C 
ENDBRANCH  19  20
BRANCH  22  23
ATOM     23  O   UNL     1      42.552  17.539  22.448  0.00  0.00    -0.481 OA
ATOM     24  H   UNL     1      42.273  18.271  23.014  0.00  0.00    +0.400 HD
ENDBRANCH  22  23
BRANCH  33  34
ATOM     34  O   UNL     1      52.038  18.693  21.381  0.00  0.00    -0.295 OA
ATOM     35  C   UNL     1      51.829  20.028  21.849  0.00  0.00    +0.251 C 
ENDBRANCH  33  34
BRANCH  37  38
ATOM     38  O   UNL     1      52.064  16.095  22.328  0.00  0.00    -0.300 OA
ATOM     39  C   UNL     1      53.137  15.688  21.477  0.00  0.00    +0.236 C 
ENDBRANCH  37  38
BRANCH  13  12
ATOM     12  C   UNL     1      49.838  14.390  22.070  0.00  0.00    +0.153 C 
BRANCH  12  11
ATOM      1  C   UNL     1      51.625  13.314  15.002  0.00  0.00    +0.326 C 
ATOM      2  N   UNL     1      51.153  12.735  16.266  0.00  0.00    -0.384 N 
ATOM      3  H   UNL     1      50.198  12.427  16.162  0.00  0.00    +0.422 HD
ATOM      4  C   UNL     1      52.003  11.591  16.632  0.00  0.00    +0.272 C 
ATOM      5  C   UNL     1      51.325  10.822  17.766  0.00  0.00    +0.119 C 
ATOM      6  C   UNL     1      50.944  11.773  18.872  0.00  0.00    -0.036 A 
ATOM      7  C   UNL     1      50.638  11.253  20.119  0.00  0.00    -0.059 A 
ATOM      8  C   UNL     1      50.279  12.095  21.159  0.00  0.00    +0.177 A 
ATOM     11  C   UNL     1      50.228  13.466  20.946  0.00  0.00    -0.104 A 
ATOM     40  C   UNL     1      50.535  13.980  19.704  0.00  0.00    +0.077 A 
ATOM     41  C   UNL     1      50.895  13.136  18.663  0.00  0.00    -0.163 A 
ATOM     42  C   UNL     1      51.229  13.744  17.326  0.00  0.00    +0.237 C 
BRANCH   8   9
ATOM      9  O   UNL     1      49.979  11.583  22.380  0.00  0.00    -0.277 OA
ATOM     10  C   UNL     1      49.397  10.278  22.411  0.00  0.00    +0.249 C 
ENDBRANCH   8   9
BRANCH  42  43
ATOM     43  C   UNL     1      50.238  14.870  17.023  0.00  0.00    +0.117 C 
BRANCH  43  44
ATOM     44  C   UNL     1      50.894  16.200  17.294  0.00  0.00    -0.131 A 
ATOM     45  C   UNL     1      50.255  17.371  16.929  0.00  0.00    +0.011 A 
ATOM     46  C   UNL     1      50.854  18.591  17.174  0.00  0.00    +0.004 A 
ATOM     47  C   UNL     1      52.097  18.641  17.790  0.00  0.00    +0.128 A 
ATOM     50  C   UNL     1      52.735  17.465  18.156  0.00  0.00    -0.011 A 
ATOM     51  C   UNL     1      52.129  16.248  17.911  0.00  0.00    +0.055 A 
BRANCH  47  48
ATOM     48  O   UNL     1      52.688  19.841  18.034  0.00  0.00    -0.498 OA
ATOM     49  H   UNL     1      53.227  20.169  17.302  0.00  0.00    +0.400 HD
ENDBRANCH  47  48
ENDBRANCH  43  44
ENDBRANCH  42  43
ENDBRANCH  12  11
ENDBRANCH  13  12
TORSDOF 10
ENDMDL
MODEL 9
REMARK VINA RESULT:      -5.0      3.657      8.487
REMARK  Name = ZINC95485889
REMARK  16 active torsions:
REMARK  status: ('A' for Active; 'I' for Inactive)
REMARK    1  A    between atoms: C1_1  and  N1_2
REMARK    2  A    between atoms: C6_7  and  O6_49
REMARK    3  A    between atoms: C7_8  and  C18_21
REMARK    4  A    between atoms: C10_11  and  C11_13
REMARK    5  A    between atoms: C11_13  and  C12_14
REMARK    6  A    between atoms: C15_17  and  O1_20
REMARK    7  A    between atoms: C18_21  and  C19_22
REMARK    8  A    between atoms: C23_26  and  O3_30
REMARK    9  A    between atoms: C24_27  and  O2_28
REMARK   10  A    between atoms: O2_28  and  C25_29
REMARK   11  A    between atoms: O3_30  and  C26_31
REMARK   12  A    between atoms: C30_36  and  O5_47
REMARK   13  A    between atoms: C31_37  and  O4_46
REMARK   14  A    between atoms: N2_44  and  C37_45
REMARK   15  A    between atoms: O5_47  and  C38_48
REMARK   16  A    between atoms: O6_49  and  C39_50
REMARK                            x       y       z     vdW  Elec       q    Type
REMARK                         _______ _______ _______ _____ _____    ______ ____
ROOT
ATOM     13  C   UNL     1      50.956  11.828  17.251  0.00  0.00    -0.069 A 
ATOM     14  C   UNL     1      49.593  12.101  17.351  0.00  0.00    -0.056 A 
ATOM     15  C   UNL     1      48.904  12.567  16.267  0.00  0.00    -0.109 A 
ATOM     16  C   UNL     1      47.454  12.932  16.237  0.00  0.00    +0.296 C 
ATOM     17  C   UNL     1      46.995  13.824  17.340  0.00  0.00    -0.098 A 
ATOM     18  C   UNL     1      46.622  15.136  17.151  0.00  0.00    -0.011 A 
ATOM     19  C   UNL     1      46.182  15.885  18.232  0.00  0.00    +0.125 A 
ATOM     22  C   UNL     1      46.114  15.315  19.500  0.00  0.00    +0.112 A 
ATOM     25  C   UNL     1      46.502  13.994  19.687  0.00  0.00    +0.057 A 
ATOM     26  C   UNL     1      46.947  13.267  18.613  0.00  0.00    -0.106 A 
ATOM     27  C   UNL     1      47.451  11.857  18.702  0.00  0.00    +0.074 C 
ATOM     28  C   UNL     1      46.806  11.013  17.613  0.00  0.00    +0.261 C 
ATOM     29  N   UNL     1      46.692  11.672  16.336  0.00  0.00    -0.377 N 
ATOM     30  H   UNL     1      47.025  11.036  15.629  0.00  0.00    +0.428 HD
ATOM     31  C   UNL     1      45.274  11.959  16.079  0.00  0.00    +0.320 C 
ATOM     32  C   UNL     1      49.588  12.748  15.058  0.00  0.00    -0.048 A 
ATOM     33  C   UNL     1      50.935  12.477  14.951  0.00  0.00    +0.121 A 
ATOM     36  C   UNL     1      48.958  11.848  18.679  0.00  0.00    +0.103 C 
ATOM     37  C   UNL     1      51.634  12.019  16.064  0.00  0.00    +0.123 A 
ENDROOT
BRANCH  19  20
ATOM     20  O   UNL     1      45.814  17.181  18.052  0.00  0.00    -0.294 OA
ATOM     21  C   UNL     1      46.861  18.150  17.983  0.00  0.00    +0.254 C 
ENDBRANCH  19  20
BRANCH  22  23
ATOM     23  O   UNL     1      45.671  16.051  20.555  0.00  0.00    -0.481 OA
ATOM     24  H   UNL     1      44.736  16.288  20.504  0.00  0.00    +0.400 HD
ENDBRANCH  22  23
BRANCH  33  34
ATOM     34  O   UNL     1      51.578  12.662  13.767  0.00  0.00    -0.295 OA
ATOM     35  C   UNL     1      50.763  12.861  12.609  0.00  0.00    +0.251 C 
ENDBRANCH  33  34
BRANCH  37  38
ATOM     38  O   UNL     1      52.966  11.757  15.981  0.00  0.00    -0.300 OA
ATOM     39  C   UNL     1      53.346  10.465  15.501  0.00  0.00    +0.236 C 
ENDBRANCH  37  38
BRANCH  13  12
ATOM     12  C   UNL     1      51.703  11.321  18.459  0.00  0.00    +0.153 C 
BRANCH  12  11
ATOM      1  C   UNL     1      50.528  17.690  21.977  0.00  0.00    +0.326 C 
ATOM      2  N   UNL     1      51.490  16.781  21.340  0.00  0.00    -0.384 N 
ATOM      3  H   UNL     1      51.859  17.211  20.505  0.00  0.00    +0.422 HD
ATOM      4  C   UNL     1      52.589  16.494  22.274  0.00  0.00    +0.272 C 
ATOM      5  C   UNL     1      53.719  15.809  21.503  0.00  0.00    +0.119 C 
ATOM      6  C   UNL     1      53.168  14.648  20.716  0.00  0.00    -0.036 A 
ATOM      7  C   UNL     1      54.051  13.696  20.231  0.00  0.00    -0.059 A 
ATOM      8  C   UNL     1      53.582  12.617  19.500  0.00  0.00    +0.177 A 
ATOM     11  C   UNL     1      52.222  12.491  19.254  0.00  0.00    -0.104 A 
ATOM     40  C   UNL     1      51.347  13.439  19.741  0.00  0.00    +0.077 A 
ATOM     41  C   UNL     1      51.816  14.520  20.474  0.00  0.00    -0.163 A 
ATOM     42  C   UNL     1      50.821  15.526  20.990  0.00  0.00    +0.237 C 
BRANCH   8   9
ATOM      9  O   UNL     1      54.450  11.685  19.026  0.00  0.00    -0.277 OA
ATOM     10  C   UNL     1      55.085  10.841  19.988  0.00  0.00    +0.249 C 
ENDBRANCH   8   9
BRANCH  42  43
ATOM     43  C   UNL     1      49.771  15.797  19.910  0.00  0.00    +0.117 C 
BRANCH  43  44
ATOM     44  C   UNL     1      50.444  16.375  18.691  0.00  0.00    -0.131 A 
ATOM     45  C   UNL     1      50.804  15.547  17.643  0.00  0.00    +0.011 A 
ATOM     46  C   UNL     1      51.421  16.074  16.526  0.00  0.00    +0.004 A 
ATOM     47  C   UNL     1      51.679  17.436  16.455  0.00  0.00    +0.128 A 
ATOM     50  C   UNL     1      51.316  18.265  17.507  0.00  0.00    -0.011 A 
ATOM     51  C   UNL     1      50.695  17.732  18.621  0.00  0.00    +0.055 A 
BRANCH  47  48
ATOM     48  O   UNL     1      52.286  17.957  15.356  0.00  0.00    -0.498 OA
ATOM     49  H   UNL     1      51.754  17.905  14.551  0.00  0.00    +0.400 HD
ENDBRANCH  47  48
ENDBRANCH  43  44
ENDBRANCH  42  43
ENDBRANCH  12  11
ENDBRANCH  13  12
TORSDOF 10
ENDMDL
