MODEL 1
REMARK VINA RESULT:      -5.7      0.000      0.000
REMARK  Name = ZINC13359134
REMARK  12 active torsions:
REMARK  status: ('A' for Active; 'I' for Inactive)
REMARK    1  A    between atoms: C1_1  and  C2_2
REMARK    2  A    between atoms: C5_5  and  C14_16
REMARK    3  A    between atoms: C8_8  and  O2_14
REMARK    4  A    between atoms: C10_10  and  O1_12
REMARK    5  A    between atoms: O1_12  and  C12_13
REMARK    6  A    between atoms: O2_14  and  C13_15
REMARK    7  A    between atoms: C15_17  and  O4_31
REMARK    8  A    between atoms: C17_19  and  O3_29
REMARK    9  A    between atoms: C21_23  and  C24_28
REMARK   10  A    between atoms: C22_26  and  C23_27
REMARK   11  A    between atoms: O3_29  and  C25_30
REMARK   12  A    between atoms: O4_31  and  C26_32
REMARK                            x       y       z     vdW  Elec       q    Type
REMARK                         _______ _______ _______ _____ _____    ______ ____
ROOT
ATOM      6  C   UNL     1      46.434  19.410  19.278  0.00  0.00    -0.105 A 
ATOM      7  C   UNL     1      47.545  19.842  20.021  0.00  0.00    +0.203 A 
ATOM     10  C   UNL     1      47.511  21.056  20.686  0.00  0.00    -0.169 A 
ATOM     11  C   UNL     1      46.379  21.855  20.625  0.00  0.00    +0.209 A 
ATOM     14  C   UNL     1      45.268  21.431  19.887  0.00  0.00    -0.187 A 
ATOM     15  C   UNL     1      44.050  22.252  19.796  0.00  0.00    +0.230 C 
ATOM     16  C   UNL     1      44.104  23.722  20.121  0.00  0.00    +0.138 C 
ATOM     17  N   UNL     1      42.934  21.707  19.437  0.00  0.00    -0.524 NA
ATOM     18  C   UNL     1      42.827  20.285  19.127  0.00  0.00    +0.151 C 
ATOM     19  C   UNL     1      41.623  20.061  18.210  0.00  0.00    +0.052 C 
ATOM     20  C   UNL     1      44.088  19.775  18.431  0.00  0.00    +0.078 C 
ATOM     21  C   UNL     1      45.300  20.205  19.215  0.00  0.00    +0.029 A 
ENDROOT
BRANCH   6   5
ATOM      1  C   UNL     1      44.501  15.886  22.505  0.00  0.00    +0.091 C 
ATOM      2  C   UNL     1      45.046  15.832  21.101  0.00  0.00    -0.025 A 
ATOM      3  C   UNL     1      45.493  16.975  20.511  0.00  0.00    -0.031 A 
ATOM      4  C   UNL     1      46.002  16.937  19.205  0.00  0.00    +0.044 A 
ATOM      5  C   UNL     1      46.473  18.110  18.568  0.00  0.00    -0.072 A 
ATOM     22  C   UNL     1      46.974  18.035  17.281  0.00  0.00    +0.083 A 
ATOM     23  C   UNL     1      47.016  16.822  16.604  0.00  0.00    -0.108 A 
ATOM     24  C   UNL     1      46.560  15.666  17.198  0.00  0.00    +0.172 A 
ATOM     27  C   UNL     1      46.042  15.706  18.508  0.00  0.00    -0.099 A 
ATOM     28  C   UNL     1      45.569  14.539  19.140  0.00  0.00    +0.170 A 
ATOM     31  C   UNL     1      45.085  14.615  20.428  0.00  0.00    -0.109 A 
BRANCH  24  25
ATOM     25  O   UNL     1      46.607  14.489  16.521  0.00  0.00    -0.291 OA
ATOM     26  C   UNL     1      47.897  14.020  16.125  0.00  0.00    +0.238 C 
ENDBRANCH  24  25
BRANCH  28  29
ATOM     29  O   UNL     1      45.603  13.347  18.491  0.00  0.00    -0.290 OA
ATOM     30  C   UNL     1      46.479  12.348  19.014  0.00  0.00    +0.237 C 
ENDBRANCH  28  29
ENDBRANCH   6   5
BRANCH   7   8
ATOM      8  O   UNL     1      48.658  19.067  20.085  0.00  0.00    -0.298 OA
ATOM      9  C   UNL     1      49.827  19.553  19.422  0.00  0.00    +0.241 C 
ENDBRANCH   7   8
BRANCH  11  12
ATOM     12  O   UNL     1      46.348  23.041  21.284  0.00  0.00    -0.298 OA
ATOM     13  C   UNL     1      47.362  23.267  22.263  0.00  0.00    +0.240 C 
ENDBRANCH  11  12
TORSDOF 5
ENDMDL
MODEL 2
REMARK VINA RESULT:      -5.7      2.876      6.526
REMARK  Name = ZINC13359134
REMARK  12 active torsions:
REMARK  status: ('A' for Active; 'I' for Inactive)
REMARK    1  A    between atoms: C1_1  and  C2_2
REMARK    2  A    between atoms: C5_5  and  C14_16
REMARK    3  A    between atoms: C8_8  and  O2_14
REMARK    4  A    between atoms: C10_10  and  O1_12
REMARK    5  A    between atoms: O1_12  and  C12_13
REMARK    6  A    between atoms: O2_14  and  C13_15
REMARK    7  A    between atoms: C15_17  and  O4_31
REMARK    8  A    between atoms: C17_19  and  O3_29
REMARK    9  A    between atoms: C21_23  and  C24_28
REMARK   10  A    between atoms: C22_26  and  C23_27
REMARK   11  A    between atoms: O3_29  and  C25_30
REMARK   12  A    between atoms: O4_31  and  C26_32
REMARK                            x       y       z     vdW  Elec       q    Type
REMARK                         _______ _______ _______ _____ _____    ______ ____
ROOT
ATOM      6  C   UNL     1      48.079  18.414  18.537  0.00  0.00    -0.105 A 
ATOM      7  C   UNL     1      48.008  17.529  17.449  0.00  0.00    +0.203 A 
ATOM     10  C   UNL     1      49.120  16.793  17.075  0.00  0.00    -0.169 A 
ATOM     11  C   UNL     1      50.312  16.923  17.772  0.00  0.00    +0.209 A 
ATOM     14  C   UNL     1      50.389  17.803  18.858  0.00  0.00    -0.187 A 
ATOM     15  C   UNL     1      51.636  17.969  19.621  0.00  0.00    +0.230 C 
ATOM     16  C   UNL     1      52.951  17.545  19.021  0.00  0.00    +0.138 C 
ATOM     17  N   UNL     1      51.599  18.482  20.808  0.00  0.00    -0.524 NA
ATOM     18  C   UNL     1      50.350  18.894  21.438  0.00  0.00    +0.151 C 
ATOM     19  C   UNL     1      50.650  19.949  22.505  0.00  0.00    +0.052 C 
ATOM     20  C   UNL     1      49.382  19.483  20.413  0.00  0.00    +0.078 C 
ATOM     21  C   UNL     1      49.267  18.547  19.238  0.00  0.00    +0.029 A 
ENDROOT
BRANCH   6   5
ATOM      1  C   UNL     1      45.119  15.301  21.387  0.00  0.00    +0.091 C 
ATOM      2  C   UNL     1      44.998  16.732  20.932  0.00  0.00    -0.025 A 
ATOM      3  C   UNL     1      45.982  17.278  20.164  0.00  0.00    -0.031 A 
ATOM      4  C   UNL     1      45.879  18.609  19.735  0.00  0.00    +0.044 A 
ATOM      5  C   UNL     1      46.888  19.200  18.936  0.00  0.00    -0.072 A 
ATOM     22  C   UNL     1      46.752  20.514  18.525  0.00  0.00    +0.083 A 
ATOM     23  C   UNL     1      45.639  21.261  18.893  0.00  0.00    -0.108 A 
ATOM     24  C   UNL     1      44.646  20.713  19.674  0.00  0.00    +0.172 A 
ATOM     27  C   UNL     1      44.752  19.377  20.110  0.00  0.00    -0.099 A 
ATOM     28  C   UNL     1      43.751  18.790  20.909  0.00  0.00    +0.170 A 
ATOM     31  C   UNL     1      43.883  17.477  21.303  0.00  0.00    -0.109 A 
BRANCH  24  25
ATOM     25  O   UNL     1      43.567  21.459  20.025  0.00  0.00    -0.291 OA
ATOM     26  C   UNL     1      43.600  22.847  19.685  0.00  0.00    +0.238 C 
ENDBRANCH  24  25
BRANCH  28  29
ATOM     29  O   UNL     1      42.659  19.509  21.277  0.00  0.00    -0.290 OA
ATOM     30  C   UNL     1      41.386  18.880  21.122  0.00  0.00    +0.237 C 
ENDBRANCH  28  29
ENDBRANCH   6   5
BRANCH   7   8
ATOM      8  O   UNL     1      46.847  17.397  16.759  0.00  0.00    -0.298 OA
ATOM      9  C   UNL     1      46.380  16.067  16.523  0.00  0.00    +0.241 C 
ENDBRANCH   7   8
BRANCH  11  12
ATOM     12  O   UNL     1      51.396  16.195  17.406  0.00  0.00    -0.298 OA
ATOM     13  C   UNL     1      51.184  14.812  17.121  0.00  0.00    +0.240 C 
ENDBRANCH  11  12
TORSDOF 5
ENDMDL
MODEL 3
REMARK VINA RESULT:      -5.7      1.528      3.141
REMARK  Name = ZINC13359134
REMARK  12 active torsions:
REMARK  status: ('A' for Active; 'I' for Inactive)
REMARK    1  A    between atoms: C1_1  and  C2_2
REMARK    2  A    between atoms: C5_5  and  C14_16
REMARK    3  A    between atoms: C8_8  and  O2_14
REMARK    4  A    between atoms: C10_10  and  O1_12
REMARK    5  A    between atoms: O1_12  and  C12_13
REMARK    6  A    between atoms: O2_14  and  C13_15
REMARK    7  A    between atoms: C15_17  and  O4_31
REMARK    8  A    between atoms: C17_19  and  O3_29
REMARK    9  A    between atoms: C21_23  and  C24_28
REMARK   10  A    between atoms: C22_26  and  C23_27
REMARK   11  A    between atoms: O3_29  and  C25_30
REMARK   12  A    between atoms: O4_31  and  C26_32
REMARK                            x       y       z     vdW  Elec       q    Type
REMARK                         _______ _______ _______ _____ _____    ______ ____
ROOT
ATOM      6  C   UNL     1      44.931  19.363  20.996  0.00  0.00    -0.105 A 
ATOM      7  C   UNL     1      45.927  20.071  21.686  0.00  0.00    +0.203 A 
ATOM     10  C   UNL     1      45.960  21.454  21.640  0.00  0.00    -0.169 A 
ATOM     11  C   UNL     1      45.008  22.152  20.912  0.00  0.00    +0.209 A 
ATOM     14  C   UNL     1      44.011  21.453  20.221  0.00  0.00    -0.187 A 
ATOM     15  C   UNL     1      42.985  22.157  19.437  0.00  0.00    +0.230 C 
ATOM     16  C   UNL     1      43.212  23.582  19.004  0.00  0.00    +0.138 C 
ATOM     17  N   UNL     1      41.889  21.549  19.119  0.00  0.00    -0.524 NA
ATOM     18  C   UNL     1      41.616  20.176  19.528  0.00  0.00    +0.151 C 
ATOM     19  C   UNL     1      40.598  19.559  18.566  0.00  0.00    +0.052 C 
ATOM     20  C   UNL     1      42.890  19.332  19.516  0.00  0.00    +0.078 C 
ATOM     21  C   UNL     1      43.976  20.055  20.267  0.00  0.00    +0.029 A 
ENDROOT
BRANCH   6   5
ATOM      1  C   UNL     1      47.145  17.667  16.660  0.00  0.00    +0.091 C 
ATOM      2  C   UNL     1      46.530  16.987  17.857  0.00  0.00    -0.025 A 
ATOM      3  C   UNL     1      46.015  17.743  18.867  0.00  0.00    -0.031 A 
ATOM      4  C   UNL     1      45.440  17.121  19.984  0.00  0.00    +0.044 A 
ATOM      5  C   UNL     1      44.898  17.882  21.047  0.00  0.00    -0.072 A 
ATOM     22  C   UNL     1      44.333  17.236  22.132  0.00  0.00    +0.083 A 
ATOM     23  C   UNL     1      44.296  15.848  22.192  0.00  0.00    -0.108 A 
ATOM     24  C   UNL     1      44.821  15.082  21.174  0.00  0.00    +0.172 A 
ATOM     27  C   UNL     1      45.404  15.708  20.054  0.00  0.00    -0.099 A 
ATOM     28  C   UNL     1      45.948  14.950  18.998  0.00  0.00    +0.170 A 
ATOM     31  C   UNL     1      46.496  15.598  17.912  0.00  0.00    -0.109 A 
BRANCH  24  25
ATOM     25  O   UNL     1      44.777  13.727  21.250  0.00  0.00    -0.291 OA
ATOM     26  C   UNL     1      45.125  13.137  22.505  0.00  0.00    +0.238 C 
ENDBRANCH  24  25
BRANCH  28  29
ATOM     29  O   UNL     1      45.920  13.593  19.044  0.00  0.00    -0.290 OA
ATOM     30  C   UNL     1      45.780  12.905  17.800  0.00  0.00    +0.237 C 
ENDBRANCH  28  29
ENDBRANCH   6   5
BRANCH   7   8
ATOM      8  O   UNL     1      46.864  19.397  22.400  0.00  0.00    -0.298 OA
ATOM      9  C   UNL     1      48.197  19.395  21.885  0.00  0.00    +0.241 C 
ENDBRANCH   7   8
BRANCH  11  12
ATOM     12  O   UNL     1      45.039  23.508  20.875  0.00  0.00    -0.298 OA
ATOM     13  C   UNL     1      46.273  24.139  21.220  0.00  0.00    +0.240 C 
ENDBRANCH  11  12
TORSDOF 5
ENDMDL
MODEL 4
REMARK VINA RESULT:      -5.1      1.753      3.544
REMARK  Name = ZINC13359134
REMARK  12 active torsions:
REMARK  status: ('A' for Active; 'I' for Inactive)
REMARK    1  A    between atoms: C1_1  and  C2_2
REMARK    2  A    between atoms: C5_5  and  C14_16
REMARK    3  A    between atoms: C8_8  and  O2_14
REMARK    4  A    between atoms: C10_10  and  O1_12
REMARK    5  A    between atoms: O1_12  and  C12_13
REMARK    6  A    between atoms: O2_14  and  C13_15
REMARK    7  A    between atoms: C15_17  and  O4_31
REMARK    8  A    between atoms: C17_19  and  O3_29
REMARK    9  A    between atoms: C21_23  and  C24_28
REMARK   10  A    between atoms: C22_26  and  C23_27
REMARK   11  A    between atoms: O3_29  and  C25_30
REMARK   12  A    between atoms: O4_31  and  C26_32
REMARK                            x       y       z     vdW  Elec       q    Type
REMARK                         _______ _______ _______ _____ _____    ______ ____
ROOT
ATOM      6  C   UNL     1      46.569  19.142  19.286  0.00  0.00    -0.105 A 
ATOM      7  C   UNL     1      45.424  19.933  19.105  0.00  0.00    +0.203 A 
ATOM     10  C   UNL     1      45.333  21.178  19.704  0.00  0.00    -0.169 A 
ATOM     11  C   UNL     1      46.374  21.654  20.488  0.00  0.00    +0.209 A 
ATOM     14  C   UNL     1      47.519  20.870  20.673  0.00  0.00    -0.187 A 
ATOM     15  C   UNL     1      48.643  21.340  21.498  0.00  0.00    +0.230 C 
ATOM     16  C   UNL     1      48.436  22.451  22.495  0.00  0.00    +0.138 C 
ATOM     17  N   UNL     1      49.809  20.795  21.367  0.00  0.00    -0.524 NA
ATOM     18  C   UNL     1      50.063  19.728  20.405  0.00  0.00    +0.151 C 
ATOM     19  C   UNL     1      51.278  18.919  20.865  0.00  0.00    +0.052 C 
ATOM     20  C   UNL     1      48.859  18.795  20.283  0.00  0.00    +0.078 C 
ATOM     21  C   UNL     1      47.613  19.613  20.068  0.00  0.00    +0.029 A 
ENDROOT
BRANCH   6   5
ATOM      1  C   UNL     1      44.290  15.782  22.463  0.00  0.00    +0.091 C 
ATOM      2  C   UNL     1      44.970  15.660  21.124  0.00  0.00    -0.025 A 
ATOM      3  C   UNL     1      45.485  16.772  20.529  0.00  0.00    -0.031 A 
ATOM      4  C   UNL     1      46.120  16.670  19.283  0.00  0.00    +0.044 A 
ATOM      5  C   UNL     1      46.664  17.810  18.643  0.00  0.00    -0.072 A 
ATOM     22  C   UNL     1      47.289  17.673  17.416  0.00  0.00    +0.083 A 
ATOM     23  C   UNL     1      47.383  16.429  16.803  0.00  0.00    -0.108 A 
ATOM     24  C   UNL     1      46.859  15.304  17.401  0.00  0.00    +0.172 A 
ATOM     27  C   UNL     1      46.215  15.408  18.650  0.00  0.00    -0.099 A 
ATOM     28  C   UNL     1      45.670  14.275  19.285  0.00  0.00    +0.170 A 
ATOM     31  C   UNL     1      45.062  14.414  20.513  0.00  0.00    -0.109 A 
BRANCH  24  25
ATOM     25  O   UNL     1      46.960  14.098  16.786  0.00  0.00    -0.291 OA
ATOM     26  C   UNL     1      48.187  13.815  16.110  0.00  0.00    +0.238 C 
ENDBRANCH  24  25
BRANCH  28  29
ATOM     29  O   UNL     1      45.754  13.054  18.697  0.00  0.00    -0.290 OA
ATOM     30  C   UNL     1      44.528  12.439  18.300  0.00  0.00    +0.237 C 
ENDBRANCH  28  29
ENDBRANCH   6   5
BRANCH   7   8
ATOM      8  O   UNL     1      44.399  19.475  18.341  0.00  0.00    -0.298 OA
ATOM      9  C   UNL     1      43.083  19.905  18.694  0.00  0.00    +0.241 C 
ENDBRANCH   7   8
BRANCH  11  12
ATOM     12  O   UNL     1      46.284  22.877  21.068  0.00  0.00    -0.298 OA
ATOM     13  C   UNL     1      44.995  23.285  21.527  0.00  0.00    +0.240 C 
ENDBRANCH  11  12
TORSDOF 5
ENDMDL
MODEL 5
REMARK VINA RESULT:      -5.1      1.367      2.873
REMARK  Name = ZINC13359134
REMARK  12 active torsions:
REMARK  status: ('A' for Active; 'I' for Inactive)
REMARK    1  A    between atoms: C1_1  and  C2_2
REMARK    2  A    between atoms: C5_5  and  C14_16
REMARK    3  A    between atoms: C8_8  and  O2_14
REMARK    4  A    between atoms: C10_10  and  O1_12
REMARK    5  A    between atoms: O1_12  and  C12_13
REMARK    6  A    between atoms: O2_14  and  C13_15
REMARK    7  A    between atoms: C15_17  and  O4_31
REMARK    8  A    between atoms: C17_19  and  O3_29
REMARK    9  A    between atoms: C21_23  and  C24_28
REMARK   10  A    between atoms: C22_26  and  C23_27
REMARK   11  A    between atoms: O3_29  and  C25_30
REMARK   12  A    between atoms: O4_31  and  C26_32
REMARK                            x       y       z     vdW  Elec       q    Type
REMARK                         _______ _______ _______ _____ _____    ______ ____
ROOT
ATOM      6  C   UNL     1      46.261  18.790  20.607  0.00  0.00    -0.105 A 
ATOM      7  C   UNL     1      47.232  19.146  21.556  0.00  0.00    +0.203 A 
ATOM     10  C   UNL     1      47.310  20.448  22.020  0.00  0.00    -0.169 A 
ATOM     11  C   UNL     1      46.430  21.412  21.550  0.00  0.00    +0.209 A 
ATOM     14  C   UNL     1      45.460  21.064  20.603  0.00  0.00    -0.187 A 
ATOM     15  C   UNL     1      44.510  22.058  20.080  0.00  0.00    +0.230 C 
ATOM     16  C   UNL     1      44.808  23.529  20.208  0.00  0.00    +0.138 C 
ATOM     17  N   UNL     1      43.418  21.665  19.508  0.00  0.00    -0.524 NA
ATOM     18  C   UNL     1      43.076  20.253  19.374  0.00  0.00    +0.151 C 
ATOM     19  C   UNL     1      42.105  20.081  18.205  0.00  0.00    +0.052 C 
ATOM     20  C   UNL     1      44.321  19.405  19.118  0.00  0.00    +0.078 C 
ATOM     21  C   UNL     1      45.378  19.748  20.134  0.00  0.00    +0.029 A 
ENDROOT
BRANCH   6   5
ATOM      1  C   UNL     1      50.049  18.199  17.160  0.00  0.00    +0.091 C 
ATOM      2  C   UNL     1      48.976  17.290  17.702  0.00  0.00    -0.025 A 
ATOM      3  C   UNL     1      48.102  17.764  18.634  0.00  0.00    -0.031 A 
ATOM      4  C   UNL     1      47.100  16.927  19.145  0.00  0.00    +0.044 A 
ATOM      5  C   UNL     1      46.179  17.395  20.113  0.00  0.00    -0.072 A 
ATOM     22  C   UNL     1      45.199  16.544  20.591  0.00  0.00    +0.083 A 
ATOM     23  C   UNL     1      45.112  15.234  20.136  0.00  0.00    -0.108 A 
ATOM     24  C   UNL     1      45.998  14.751  19.198  0.00  0.00    +0.172 A 
ATOM     27  C   UNL     1      47.009  15.590  18.690  0.00  0.00    -0.099 A 
ATOM     28  C   UNL     1      47.928  15.124  17.730  0.00  0.00    +0.170 A 
ATOM     31  C   UNL     1      48.893  15.979  17.244  0.00  0.00    -0.109 A 
BRANCH  24  25
ATOM     25  O   UNL     1      45.898  13.467  18.766  0.00  0.00    -0.291 OA
ATOM     26  C   UNL     1      44.592  12.886  18.756  0.00  0.00    +0.238 C 
ENDBRANCH  24  25
BRANCH  28  29
ATOM     29  O   UNL     1      47.855  13.846  17.277  0.00  0.00    -0.290 OA
ATOM     30  C   UNL     1      47.789  13.662  15.862  0.00  0.00    +0.237 C 
ENDBRANCH  28  29
ENDBRANCH   6   5
BRANCH   7   8
ATOM      8  O   UNL     1      48.099  18.211  22.020  0.00  0.00    -0.298 OA
ATOM      9  C   UNL     1      49.491  18.527  21.958  0.00  0.00    +0.241 C 
ENDBRANCH   7   8
BRANCH  11  12
ATOM     12  O   UNL     1      46.506  22.685  22.012  0.00  0.00    -0.298 OA
ATOM     13  C   UNL     1      47.773  23.123  22.505  0.00  0.00    +0.240 C 
ENDBRANCH  11  12
TORSDOF 5
ENDMDL
MODEL 6
REMARK VINA RESULT:      -5.0      3.928      5.777
REMARK  Name = ZINC13359134
REMARK  12 active torsions:
REMARK  status: ('A' for Active; 'I' for Inactive)
REMARK    1  A    between atoms: C1_1  and  C2_2
REMARK    2  A    between atoms: C5_5  and  C14_16
REMARK    3  A    between atoms: C8_8  and  O2_14
REMARK    4  A    between atoms: C10_10  and  O1_12
REMARK    5  A    between atoms: O1_12  and  C12_13
REMARK    6  A    between atoms: O2_14  and  C13_15
REMARK    7  A    between atoms: C15_17  and  O4_31
REMARK    8  A    between atoms: C17_19  and  O3_29
REMARK    9  A    between atoms: C21_23  and  C24_28
REMARK   10  A    between atoms: C22_26  and  C23_27
REMARK   11  A    between atoms: O3_29  and  C25_30
REMARK   12  A    between atoms: O4_31  and  C26_32
REMARK                            x       y       z     vdW  Elec       q    Type
REMARK                         _______ _______ _______ _____ _____    ______ ____
ROOT
ATOM      6  C   UNL     1      50.944  17.226  19.677  0.00  0.00    -0.105 A 
ATOM      7  C   UNL     1      50.556  17.218  21.027  0.00  0.00    +0.203 A 
ATOM     10  C   UNL     1      50.670  18.366  21.792  0.00  0.00    -0.169 A 
ATOM     11  C   UNL     1      51.169  19.533  21.232  0.00  0.00    +0.209 A 
ATOM     14  C   UNL     1      51.557  19.548  19.888  0.00  0.00    -0.187 A 
ATOM     15  C   UNL     1      52.092  20.765  19.259  0.00  0.00    +0.230 C 
ATOM     16  C   UNL     1      52.631  21.883  20.113  0.00  0.00    +0.138 C 
ATOM     17  N   UNL     1      52.099  20.873  17.970  0.00  0.00    -0.524 NA
ATOM     18  C   UNL     1      51.574  19.826  17.100  0.00  0.00    +0.151 C 
ATOM     19  C   UNL     1      52.223  19.949  15.720  0.00  0.00    +0.052 C 
ATOM     20  C   UNL     1      51.866  18.438  17.668  0.00  0.00    +0.078 C 
ATOM     21  C   UNL     1      51.442  18.389  19.113  0.00  0.00    +0.029 A 
ENDROOT
BRANCH   6   5
ATOM      1  C   UNL     1      46.206  17.254  17.645  0.00  0.00    +0.091 C 
ATOM      2  C   UNL     1      47.375  16.306  17.562  0.00  0.00    -0.025 A 
ATOM      3  C   UNL     1      48.522  16.595  18.238  0.00  0.00    -0.031 A 
ATOM      4  C   UNL     1      49.616  15.720  18.168  0.00  0.00    +0.044 A 
ATOM      5  C   UNL     1      50.820  15.996  18.860  0.00  0.00    -0.072 A 
ATOM     22  C   UNL     1      51.877  15.108  18.774  0.00  0.00    +0.083 A 
ATOM     23  C   UNL     1      51.773  13.951  18.010  0.00  0.00    -0.108 A 
ATOM     24  C   UNL     1      50.615  13.660  17.322  0.00  0.00    +0.172 A 
ATOM     27  C   UNL     1      49.519  14.543  17.388  0.00  0.00    -0.099 A 
ATOM     28  C   UNL     1      48.323  14.271  16.695  0.00  0.00    +0.170 A 
ATOM     31  C   UNL     1      47.266  15.150  16.796  0.00  0.00    -0.109 A 
BRANCH  24  25
ATOM     25  O   UNL     1      50.532  12.526  16.580  0.00  0.00    -0.291 OA
ATOM     26  C   UNL     1      51.655  12.207  15.755  0.00  0.00    +0.238 C 
ENDBRANCH  24  25
BRANCH  28  29
ATOM     29  O   UNL     1      48.207  13.145  15.945  0.00  0.00    -0.290 OA
ATOM     30  C   UNL     1      47.023  12.366  16.123  0.00  0.00    +0.237 C 
ENDBRANCH  28  29
ENDBRANCH   6   5
BRANCH   7   8
ATOM      8  O   UNL     1      50.069  16.081  21.584  0.00  0.00    -0.298 OA
ATOM      9  C   UNL     1      48.698  16.091  21.987  0.00  0.00    +0.241 C 
ENDBRANCH   7   8
BRANCH  11  12
ATOM     12  O   UNL     1      51.273  20.658  21.984  0.00  0.00    -0.298 OA
ATOM     13  C   UNL     1      50.061  21.205  22.505  0.00  0.00    +0.240 C 
ENDBRANCH  11  12
TORSDOF 5
ENDMDL
MODEL 7
REMARK VINA RESULT:      -5.0      4.314      9.194
REMARK  Name = ZINC13359134
REMARK  12 active torsions:
REMARK  status: ('A' for Active; 'I' for Inactive)
REMARK    1  A    between atoms: C1_1  and  C2_2
REMARK    2  A    between atoms: C5_5  and  C14_16
REMARK    3  A    between atoms: C8_8  and  O2_14
REMARK    4  A    between atoms: C10_10  and  O1_12
REMARK    5  A    between atoms: O1_12  and  C12_13
REMARK    6  A    between atoms: O2_14  and  C13_15
REMARK    7  A    between atoms: C15_17  and  O4_31
REMARK    8  A    between atoms: C17_19  and  O3_29
REMARK    9  A    between atoms: C21_23  and  C24_28
REMARK   10  A    between atoms: C22_26  and  C23_27
REMARK   11  A    between atoms: O3_29  and  C25_30
REMARK   12  A    between atoms: O4_31  and  C26_32
REMARK                            x       y       z     vdW  Elec       q    Type
REMARK                         _______ _______ _______ _____ _____    ______ ____
ROOT
ATOM      6  C   UNL     1      49.635  15.578  18.103  0.00  0.00    -0.105 A 
ATOM      7  C   UNL     1      48.453  15.440  17.358  0.00  0.00    +0.203 A 
ATOM     10  C   UNL     1      48.308  14.390  16.467  0.00  0.00    -0.169 A 
ATOM     11  C   UNL     1      49.329  13.465  16.303  0.00  0.00    +0.209 A 
ATOM     14  C   UNL     1      50.511  13.597  17.043  0.00  0.00    -0.187 A 
ATOM     15  C   UNL     1      51.617  12.638  16.896  0.00  0.00    +0.230 C 
ATOM     16  C   UNL     1      51.697  11.760  15.674  0.00  0.00    +0.138 C 
ATOM     17  N   UNL     1      52.520  12.552  17.817  0.00  0.00    -0.524 NA
ATOM     18  C   UNL     1      52.477  13.370  19.025  0.00  0.00    +0.151 C 
ATOM     19  C   UNL     1      53.890  13.488  19.600  0.00  0.00    +0.052 C 
ATOM     20  C   UNL     1      51.940  14.769  18.727  0.00  0.00    +0.078 C 
ATOM     21  C   UNL     1      50.658  14.656  17.944  0.00  0.00    +0.029 A 
ENDROOT
BRANCH   6   5
ATOM      1  C   UNL     1      52.043  19.369  15.573  0.00  0.00    +0.091 C 
ATOM      2  C   UNL     1      51.517  19.217  16.977  0.00  0.00    -0.025 A 
ATOM      3  C   UNL     1      50.912  18.053  17.345  0.00  0.00    -0.031 A 
ATOM      4  C   UNL     1      50.419  17.901  18.649  0.00  0.00    +0.044 A 
ATOM      5  C   UNL     1      49.787  16.701  19.057  0.00  0.00    -0.072 A 
ATOM     22  C   UNL     1      49.317  16.583  20.352  0.00  0.00    +0.083 A 
ATOM     23  C   UNL     1      49.454  17.630  21.256  0.00  0.00    -0.108 A 
ATOM     24  C   UNL     1      50.060  18.810  20.884  0.00  0.00    +0.172 A 
ATOM     27  C   UNL     1      50.550  18.965  19.572  0.00  0.00    -0.099 A 
ATOM     28  C   UNL     1      51.175  20.160  19.165  0.00  0.00    +0.170 A 
ATOM     31  C   UNL     1      51.655  20.268  17.878  0.00  0.00    -0.109 A 
BRANCH  24  25
ATOM     25  O   UNL     1      50.183  19.823  21.781  0.00  0.00    -0.291 OA
ATOM     26  C   UNL     1      49.008  20.195  22.504  0.00  0.00    +0.238 C 
ENDBRANCH  24  25
BRANCH  28  29
ATOM     29  O   UNL     1      51.314  21.192  20.036  0.00  0.00    -0.290 OA
ATOM     30  C   UNL     1      52.619  21.758  20.168  0.00  0.00    +0.237 C 
ENDBRANCH  28  29
ENDBRANCH   6   5
BRANCH   7   8
ATOM      8  O   UNL     1      47.449  16.340  17.511  0.00  0.00    -0.298 OA
ATOM      9  C   UNL     1      46.270  15.891  18.183  0.00  0.00    +0.241 C 
ENDBRANCH   7   8
BRANCH  11  12
ATOM     12  O   UNL     1      49.180  12.435  15.434  0.00  0.00    -0.298 OA
ATOM     13  C   UNL     1      48.349  12.660  14.295  0.00  0.00    +0.240 C 
ENDBRANCH  11  12
TORSDOF 5
ENDMDL
MODEL 8
REMARK VINA RESULT:      -4.8      2.015      3.518
REMARK  Name = ZINC13359134
REMARK  12 active torsions:
REMARK  status: ('A' for Active; 'I' for Inactive)
REMARK    1  A    between atoms: C1_1  and  C2_2
REMARK    2  A    between atoms: C5_5  and  C14_16
REMARK    3  A    between atoms: C8_8  and  O2_14
REMARK    4  A    between atoms: C10_10  and  O1_12
REMARK    5  A    between atoms: O1_12  and  C12_13
REMARK    6  A    between atoms: O2_14  and  C13_15
REMARK    7  A    between atoms: C15_17  and  O4_31
REMARK    8  A    between atoms: C17_19  and  O3_29
REMARK    9  A    between atoms: C21_23  and  C24_28
REMARK   10  A    between atoms: C22_26  and  C23_27
REMARK   11  A    between atoms: O3_29  and  C25_30
REMARK   12  A    between atoms: O4_31  and  C26_32
REMARK                            x       y       z     vdW  Elec       q    Type
REMARK                         _______ _______ _______ _____ _____    ______ ____
ROOT
ATOM      6  C   UNL     1      46.197  20.686  21.041  0.00  0.00    -0.105 A 
ATOM      7  C   UNL     1      47.070  21.510  21.769  0.00  0.00    +0.203 A 
ATOM     10  C   UNL     1      46.920  22.886  21.738  0.00  0.00    -0.169 A 
ATOM     11  C   UNL     1      45.905  23.462  20.988  0.00  0.00    +0.209 A 
ATOM     14  C   UNL     1      45.031  22.646  20.259  0.00  0.00    -0.187 A 
ATOM     15  C   UNL     1      43.945  23.220  19.450  0.00  0.00    +0.230 C 
ATOM     16  C   UNL     1      43.993  24.668  19.039  0.00  0.00    +0.138 C 
ATOM     17  N   UNL     1      42.949  22.477  19.092  0.00  0.00    -0.524 NA
ATOM     18  C   UNL     1      42.849  21.073  19.479  0.00  0.00    +0.151 C 
ATOM     19  C   UNL     1      41.951  20.341  18.479  0.00  0.00    +0.052 C 
ATOM     20  C   UNL     1      44.223  20.406  19.497  0.00  0.00    +0.078 C 
ATOM     21  C   UNL     1      45.181  21.256  20.290  0.00  0.00    +0.029 A 
ENDROOT
BRANCH   6   5
ATOM      1  C   UNL     1      50.191  19.550  17.986  0.00  0.00    +0.091 C 
ATOM      2  C   UNL     1      49.250  18.727  18.829  0.00  0.00    -0.025 A 
ATOM      3  C   UNL     1      48.269  19.349  19.540  0.00  0.00    -0.031 A 
ATOM      4  C   UNL     1      47.388  18.593  20.327  0.00  0.00    +0.044 A 
ATOM      5  C   UNL     1      46.360  19.214  21.076  0.00  0.00    -0.072 A 
ATOM     22  C   UNL     1      45.505  18.437  21.838  0.00  0.00    +0.083 A 
ATOM     23  C   UNL     1      45.647  17.055  21.879  0.00  0.00    -0.108 A 
ATOM     24  C   UNL     1      46.642  16.426  21.164  0.00  0.00    +0.172 A 
ATOM     27  C   UNL     1      47.531  17.186  20.378  0.00  0.00    -0.099 A 
ATOM     28  C   UNL     1      48.557  16.569  19.637  0.00  0.00    +0.170 A 
ATOM     31  C   UNL     1      49.397  17.344  18.868  0.00  0.00    -0.109 A 
BRANCH  24  25
ATOM     25  O   UNL     1      46.767  15.074  21.218  0.00  0.00    -0.291 OA
ATOM     26  C   UNL     1      45.598  14.303  20.935  0.00  0.00    +0.238 C 
ENDBRANCH  24  25
BRANCH  28  29
ATOM     29  O   UNL     1      48.709  15.220  19.668  0.00  0.00    -0.290 OA
ATOM     30  C   UNL     1      49.055  14.576  18.441  0.00  0.00    +0.237 C 
ENDBRANCH  28  29
ENDBRANCH   6   5
BRANCH   7   8
ATOM      8  O   UNL     1      48.067  20.956  22.505  0.00  0.00    -0.298 OA
ATOM      9  C   UNL     1      49.346  21.590  22.447  0.00  0.00    +0.241 C 
ENDBRANCH   7   8
BRANCH  11  12
ATOM     12  O   UNL     1      45.758  24.811  20.966  0.00  0.00    -0.298 OA
ATOM     13  C   UNL     1      46.856  25.592  21.437  0.00  0.00    +0.240 C 
ENDBRANCH  11  12
TORSDOF 5
ENDMDL
MODEL 9
REMARK VINA RESULT:      -4.7      4.030      8.448
REMARK  Name = ZINC13359134
REMARK  12 active torsions:
REMARK  status: ('A' for Active; 'I' for Inactive)
REMARK    1  A    between atoms: C1_1  and  C2_2
REMARK    2  A    between atoms: C5_5  and  C14_16
REMARK    3  A    between atoms: C8_8  and  O2_14
REMARK    4  A    between atoms: C10_10  and  O1_12
REMARK    5  A    between atoms: O1_12  and  C12_13
REMARK    6  A    between atoms: O2_14  and  C13_15
REMARK    7  A    between atoms: C15_17  and  O4_31
REMARK    8  A    between atoms: C17_19  and  O3_29
REMARK    9  A    between atoms: C21_23  and  C24_28
REMARK   10  A    between atoms: C22_26  and  C23_27
REMARK   11  A    between atoms: O3_29  and  C25_30
REMARK   12  A    between atoms: O4_31  and  C26_32
REMARK                            x       y       z     vdW  Elec       q    Type
REMARK                         _______ _______ _______ _____ _____    ______ ____
ROOT
ATOM      6  C   UNL     1      50.556  15.827  18.457  0.00  0.00    -0.105 A 
ATOM      7  C   UNL     1      51.635  14.995  18.118  0.00  0.00    +0.203 A 
ATOM     10  C   UNL     1      51.443  13.911  17.279  0.00  0.00    -0.169 A 
ATOM     11  C   UNL     1      50.184  13.638  16.765  0.00  0.00    +0.209 A 
ATOM     14  C   UNL     1      49.104  14.464  17.098  0.00  0.00    -0.187 A 
ATOM     15  C   UNL     1      47.753  14.207  16.575  0.00  0.00    +0.230 C 
ATOM     16  C   UNL     1      47.400  12.847  16.031  0.00  0.00    +0.138 C 
ATOM     17  N   UNL     1      46.870  15.151  16.584  0.00  0.00    -0.524 NA
ATOM     18  C   UNL     1      47.168  16.489  17.086  0.00  0.00    +0.151 C 
ATOM     19  C   UNL     1      45.863  17.166  17.511  0.00  0.00    +0.052 C 
ATOM     20  C   UNL     1      48.115  16.431  18.283  0.00  0.00    +0.078 C 
ATOM     21  C   UNL     1      49.296  15.560  17.946  0.00  0.00    +0.029 A 
ENDROOT
BRANCH   6   5
ATOM      1  C   UNL     1      51.951  19.795  15.476  0.00  0.00    +0.091 C 
ATOM      2  C   UNL     1      51.738  19.623  16.958  0.00  0.00    -0.025 A 
ATOM      3  C   UNL     1      51.359  18.409  17.445  0.00  0.00    -0.031 A 
ATOM      4  C   UNL     1      51.158  18.238  18.823  0.00  0.00    +0.044 A 
ATOM      5  C   UNL     1      50.765  16.987  19.355  0.00  0.00    -0.072 A 
ATOM     22  C   UNL     1      50.581  16.852  20.720  0.00  0.00    +0.083 A 
ATOM     23  C   UNL     1      50.773  17.933  21.573  0.00  0.00    -0.108 A 
ATOM     24  C   UNL     1      51.151  19.163  21.081  0.00  0.00    +0.172 A 
ATOM     27  C   UNL     1      51.347  19.336  19.696  0.00  0.00    -0.099 A 
ATOM     28  C   UNL     1      51.734  20.582  19.165  0.00  0.00    +0.170 A 
ATOM     31  C   UNL     1      51.930  20.708  17.808  0.00  0.00    -0.109 A 
BRANCH  24  25
ATOM     25  O   UNL     1      51.332  20.207  21.929  0.00  0.00    -0.291 OA
ATOM     26  C   UNL     1      50.160  20.787  22.505  0.00  0.00    +0.238 C 
ENDBRANCH  24  25
BRANCH  28  29
ATOM     29  O   UNL     1      51.924  21.646  19.987  0.00  0.00    -0.290 OA
ATOM     30  C   UNL     1      53.224  22.238  19.991  0.00  0.00    +0.237 C 
ENDBRANCH  28  29
ENDBRANCH   6   5
BRANCH   7   8
ATOM      8  O   UNL     1      52.871  15.252  18.617  0.00  0.00    -0.298 OA
ATOM      9  C   UNL     1      53.354  14.376  19.637  0.00  0.00    +0.241 C 
ENDBRANCH   7   8
BRANCH  11  12
ATOM     12  O   UNL     1      50.002  12.579  15.937  0.00  0.00    -0.298 OA
ATOM     13  C   UNL     1      51.175  11.922  15.455  0.00  0.00    +0.240 C 
ENDBRANCH  11  12
TORSDOF 5
ENDMDL
