MODEL 1
REMARK VINA RESULT:      -5.5      0.000      0.000
REMARK  Name = ZINC28648780
REMARK  10 active torsions:
REMARK  status: ('A' for Active; 'I' for Inactive)
REMARK    1  A    between atoms: C1_1  and  C2_2
REMARK    2  A    between atoms: C4_5  and  O4_27
REMARK    3  A    between atoms: C6_9  and  C19_24
REMARK    4  A    between atoms: C6_9  and  C20_25
REMARK    5  A    between atoms: C10_13  and  C18_23
REMARK    6  A    between atoms: C11_14  and  C12_15
REMARK    7  A    between atoms: C11_14  and  O2_22
REMARK    8  A    between atoms: C12_15  and  C13_16
REMARK    9  A    between atoms: C13_16  and  C14_17
REMARK   10  A    between atoms: C20_25  and  O3_26
REMARK                            x       y       z     vdW  Elec       q    Type
REMARK                         _______ _______ _______ _____ _____    ______ ____
ROOT
ATOM      1  C   UNL     1      47.371  22.838  21.894  0.00  0.00    +0.012 C 
ATOM      2  C   UNL     1      46.305  21.879  21.361  0.00  0.00    -0.024 C 
ATOM      3  C   UNL     1      45.380  21.460  22.505  0.00  0.00    -0.001 C 
ATOM      4  C   UNL     1      44.312  20.501  21.973  0.00  0.00    +0.164 C 
ATOM      7  C   UNL     1      44.989  19.262  21.383  0.00  0.00    +0.038 C 
ATOM      8  C   UNL     1      43.922  18.303  20.852  0.00  0.00    -0.046 C 
ATOM     12  C   UNL     1      42.997  17.883  21.996  0.00  0.00    +0.024 C 
ATOM     13  C   UNL     1      44.598  17.064  20.261  0.00  0.00    +0.018 C 
ATOM     14  C   UNL     1      45.523  17.483  19.117  0.00  0.00    +0.000 C 
ATOM     15  C   UNL     1      46.591  18.442  19.649  0.00  0.00    +0.020 C 
ATOM     16  C   UNL     1      45.914  19.681  20.238  0.00  0.00    -0.023 C 
ATOM     17  C   UNL     1      45.096  20.382  19.152  0.00  0.00    +0.042 C 
ATOM     18  C   UNL     1      46.981  20.641  20.772  0.00  0.00    +0.152 C 
ENDROOT
BRANCH   4   5
ATOM      5  O   UNL     1      43.549  21.155  20.958  0.00  0.00    -0.536 OA
ATOM      6  H   UNL     1      42.592  21.055  21.060  0.00  0.00    +0.359 HD
ENDBRANCH   4   5
BRANCH  18  19
ATOM     19  O   UNL     1      47.746  19.987  21.787  0.00  0.00    -0.552 OA
ATOM     20  H   UNL     1      48.689  19.921  21.587  0.00  0.00    +0.368 HD
ENDBRANCH  18  19
BRANCH   8   9
ATOM      9  C   UNL     1      43.104  19.004  19.764  0.00  0.00    +0.197 C 
BRANCH   9  10
ATOM     10  O   UNL     1      41.724  19.009  20.136  0.00  0.00    -0.585 OA
ATOM     11  H   UNL     1      41.362  18.132  20.316  0.00  0.00    +0.371 HD
ENDBRANCH   9  10
ENDBRANCH   8   9
BRANCH  18  21
ATOM     21  C   UNL     1      47.906  21.060  19.627  0.00  0.00    +0.009 C 
BRANCH  21  22
ATOM     22  C   UNL     1      49.354  20.729  19.995  0.00  0.00    +0.096 C 
BRANCH  22  23
ATOM     23  C   UNL     1      50.098  20.288  18.762  0.00  0.00    -0.178 A 
ATOM     24  C   UNL     1      50.979  21.074  17.983  0.00  0.00    -0.061 A 
ATOM     25  C   UNL     1      51.419  20.290  16.982  0.00  0.00    +0.160 A 
ATOM     26  O   UNL     1      50.855  19.079  17.113  0.00  0.00    -0.178 OA
ATOM     27  C   UNL     1      50.057  19.070  18.192  0.00  0.00    +0.153 A 
ENDBRANCH  22  23
ENDBRANCH  21  22
ENDBRANCH  18  21
TORSDOF 7
ENDMDL
MODEL 2
REMARK VINA RESULT:      -5.3      2.112      5.910
REMARK  Name = ZINC28648780
REMARK  10 active torsions:
REMARK  status: ('A' for Active; 'I' for Inactive)
REMARK    1  A    between atoms: C1_1  and  C2_2
REMARK    2  A    between atoms: C4_5  and  O4_27
REMARK    3  A    between atoms: C6_9  and  C19_24
REMARK    4  A    between atoms: C6_9  and  C20_25
REMARK    5  A    between atoms: C10_13  and  C18_23
REMARK    6  A    between atoms: C11_14  and  C12_15
REMARK    7  A    between atoms: C11_14  and  O2_22
REMARK    8  A    between atoms: C12_15  and  C13_16
REMARK    9  A    between atoms: C13_16  and  C14_17
REMARK   10  A    between atoms: C20_25  and  O3_26
REMARK                            x       y       z     vdW  Elec       q    Type
REMARK                         _______ _______ _______ _____ _____    ______ ____
ROOT
ATOM      1  C   UNL     1      45.180  23.001  21.491  0.00  0.00    +0.012 C 
ATOM      2  C   UNL     1      45.830  21.654  21.166  0.00  0.00    -0.024 C 
ATOM      3  C   UNL     1      47.325  21.858  20.914  0.00  0.00    -0.001 C 
ATOM      4  C   UNL     1      47.976  20.512  20.590  0.00  0.00    +0.164 C 
ATOM      7  C   UNL     1      47.323  19.919  19.339  0.00  0.00    +0.038 C 
ATOM      8  C   UNL     1      47.974  18.573  19.014  0.00  0.00    -0.046 C 
ATOM     12  C   UNL     1      49.469  18.777  18.762  0.00  0.00    +0.024 C 
ATOM     13  C   UNL     1      47.322  17.979  17.764  0.00  0.00    +0.018 C 
ATOM     14  C   UNL     1      45.826  17.776  18.016  0.00  0.00    +0.000 C 
ATOM     15  C   UNL     1      45.176  19.122  18.340  0.00  0.00    +0.020 C 
ATOM     16  C   UNL     1      45.827  19.714  19.591  0.00  0.00    -0.023 C 
ATOM     17  C   UNL     1      45.635  18.758  20.770  0.00  0.00    +0.042 C 
ATOM     18  C   UNL     1      45.177  21.062  19.916  0.00  0.00    +0.152 C 
ENDROOT
BRANCH   4   5
ATOM      5  O   UNL     1      47.795  19.618  21.690  0.00  0.00    -0.536 OA
ATOM      6  H   UNL     1      47.174  18.897  21.513  0.00  0.00    +0.359 HD
ENDBRANCH   4   5
BRANCH  18  19
ATOM     19  O   UNL     1      45.357  21.956  18.816  0.00  0.00    -0.552 OA
ATOM     20  H   UNL     1      44.925  22.812  18.930  0.00  0.00    +0.368 HD
ENDBRANCH  18  19
BRANCH   8   9
ATOM      9  C   UNL     1      47.780  17.616  20.192  0.00  0.00    +0.197 C 
BRANCH   9  10
ATOM     10  O   UNL     1      49.054  17.129  20.624  0.00  0.00    -0.585 OA
ATOM     11  H   UNL     1      49.687  17.826  20.843  0.00  0.00    +0.371 HD
ENDBRANCH   9  10
ENDBRANCH   8   9
BRANCH  18  21
ATOM     21  C   UNL     1      43.682  20.857  20.168  0.00  0.00    +0.009 C 
BRANCH  21  22
ATOM     22  C   UNL     1      42.885  21.894  19.373  0.00  0.00    +0.096 C 
BRANCH  22  23
ATOM     23  C   UNL     1      41.671  21.239  18.770  0.00  0.00    -0.178 A 
ATOM     24  C   UNL     1      41.574  19.907  18.306  0.00  0.00    -0.061 A 
ATOM     25  C   UNL     1      40.319  19.742  17.849  0.00  0.00    +0.160 A 
ATOM     26  O   UNL     1      39.655  20.897  18.012  0.00  0.00    -0.178 OA
ATOM     27  C   UNL     1      40.467  21.807  18.573  0.00  0.00    +0.153 A 
ENDBRANCH  22  23
ENDBRANCH  21  22
ENDBRANCH  18  21
TORSDOF 7
ENDMDL
MODEL 3
REMARK VINA RESULT:      -5.2      1.752      3.452
REMARK  Name = ZINC28648780
REMARK  10 active torsions:
REMARK  status: ('A' for Active; 'I' for Inactive)
REMARK    1  A    between atoms: C1_1  and  C2_2
REMARK    2  A    between atoms: C4_5  and  O4_27
REMARK    3  A    between atoms: C6_9  and  C19_24
REMARK    4  A    between atoms: C6_9  and  C20_25
REMARK    5  A    between atoms: C10_13  and  C18_23
REMARK    6  A    between atoms: C11_14  and  C12_15
REMARK    7  A    between atoms: C11_14  and  O2_22
REMARK    8  A    between atoms: C12_15  and  C13_16
REMARK    9  A    between atoms: C13_16  and  C14_17
REMARK   10  A    between atoms: C20_25  and  O3_26
REMARK                            x       y       z     vdW  Elec       q    Type
REMARK                         _______ _______ _______ _____ _____    ______ ____
ROOT
ATOM      1  C   UNL     1      47.754  15.422  19.601  0.00  0.00    +0.012 C 
ATOM      2  C   UNL     1      46.873  16.583  20.066  0.00  0.00    -0.024 C 
ATOM      3  C   UNL     1      45.400  16.202  19.905  0.00  0.00    -0.001 C 
ATOM      4  C   UNL     1      44.519  17.363  20.371  0.00  0.00    +0.164 C 
ATOM      7  C   UNL     1      44.821  18.602  19.526  0.00  0.00    +0.038 C 
ATOM      8  C   UNL     1      43.939  19.763  19.991  0.00  0.00    -0.046 C 
ATOM     12  C   UNL     1      42.466  19.382  19.830  0.00  0.00    +0.024 C 
ATOM     13  C   UNL     1      44.241  21.003  19.148  0.00  0.00    +0.018 C 
ATOM     14  C   UNL     1      45.714  21.384  19.309  0.00  0.00    +0.000 C 
ATOM     15  C   UNL     1      46.595  20.224  18.843  0.00  0.00    +0.020 C 
ATOM     16  C   UNL     1      46.294  18.984  19.688  0.00  0.00    -0.023 C 
ATOM     17  C   UNL     1      46.584  19.286  21.159  0.00  0.00    +0.042 C 
ATOM     18  C   UNL     1      47.175  17.822  19.222  0.00  0.00    +0.152 C 
ENDROOT
BRANCH   4   5
ATOM      5  O   UNL     1      44.790  17.645  21.745  0.00  0.00    -0.536 OA
ATOM      6  H   UNL     1      45.404  18.381  21.881  0.00  0.00    +0.359 HD
ENDBRANCH   4   5
BRANCH  18  19
ATOM     19  O   UNL     1      46.904  17.540  17.848  0.00  0.00    -0.552 OA
ATOM     20  H   UNL     1      46.128  16.982  17.706  0.00  0.00    +0.368 HD
ENDBRANCH  18  19
BRANCH   8   9
ATOM      9  C   UNL     1      44.230  20.066  21.463  0.00  0.00    +0.197 C 
BRANCH   9  10
ATOM     10  O   UNL     1      43.026  19.938  22.223  0.00  0.00    -0.585 OA
ATOM     11  H   UNL     1      42.479  20.735  22.227  0.00  0.00    +0.371 HD
ENDBRANCH   9  10
ENDBRANCH   8   9
BRANCH  18  21
ATOM     21  C   UNL     1      48.648  18.204  19.384  0.00  0.00    +0.009 C 
BRANCH  21  22
ATOM     22  C   UNL     1      49.335  18.171  18.017  0.00  0.00    +0.096 C 
BRANCH  22  23
ATOM     23  C   UNL     1      50.397  19.238  17.963  0.00  0.00    -0.178 A 
ATOM     24  C   UNL     1      50.302  20.548  18.485  0.00  0.00    -0.061 A 
ATOM     25  C   UNL     1      51.470  21.161  18.219  0.00  0.00    +0.160 A 
ATOM     26  O   UNL     1      52.263  20.295  17.566  0.00  0.00    -0.178 OA
ATOM     27  C   UNL     1      51.620  19.126  17.412  0.00  0.00    +0.153 A 
ENDBRANCH  22  23
ENDBRANCH  21  22
ENDBRANCH  18  21
TORSDOF 7
ENDMDL
MODEL 4
REMARK VINA RESULT:      -5.0      2.984      6.686
REMARK  Name = ZINC28648780
REMARK  10 active torsions:
REMARK  status: ('A' for Active; 'I' for Inactive)
REMARK    1  A    between atoms: C1_1  and  C2_2
REMARK    2  A    between atoms: C4_5  and  O4_27
REMARK    3  A    between atoms: C6_9  and  C19_24
REMARK    4  A    between atoms: C6_9  and  C20_25
REMARK    5  A    between atoms: C10_13  and  C18_23
REMARK    6  A    between atoms: C11_14  and  C12_15
REMARK    7  A    between atoms: C11_14  and  O2_22
REMARK    8  A    between atoms: C12_15  and  C13_16
REMARK    9  A    between atoms: C13_16  and  C14_17
REMARK   10  A    between atoms: C20_25  and  O3_26
REMARK                            x       y       z     vdW  Elec       q    Type
REMARK                         _______ _______ _______ _____ _____    ______ ____
ROOT
ATOM      1  C   UNL     1      46.840  19.001  20.661  0.00  0.00    +0.012 C 
ATOM      2  C   UNL     1      48.233  19.187  20.055  0.00  0.00    -0.024 C 
ATOM      3  C   UNL     1      48.344  20.590  19.454  0.00  0.00    -0.001 C 
ATOM      4  C   UNL     1      49.737  20.776  18.849  0.00  0.00    +0.164 C 
ATOM      7  C   UNL     1      49.959  19.732  17.752  0.00  0.00    +0.038 C 
ATOM      8  C   UNL     1      51.352  19.919  17.146  0.00  0.00    -0.046 C 
ATOM     12  C   UNL     1      51.464  21.322  16.546  0.00  0.00    +0.024 C 
ATOM     13  C   UNL     1      51.575  18.876  16.050  0.00  0.00    +0.018 C 
ATOM     14  C   UNL     1      51.464  17.473  16.650  0.00  0.00    +0.000 C 
ATOM     15  C   UNL     1      50.071  17.286  17.255  0.00  0.00    +0.020 C 
ATOM     16  C   UNL     1      49.849  18.329  18.353  0.00  0.00    -0.023 C 
ATOM     17  C   UNL     1      50.906  18.157  19.444  0.00  0.00    +0.042 C 
ATOM     18  C   UNL     1      48.455  18.144  18.959  0.00  0.00    +0.152 C 
ENDROOT
BRANCH   4   5
ATOM      5  O   UNL     1      50.725  20.614  19.868  0.00  0.00    -0.536 OA
ATOM      6  H   UNL     1      50.774  21.353  20.490  0.00  0.00    +0.359 HD
ENDBRANCH   4   5
BRANCH  18  19
ATOM     19  O   UNL     1      47.467  18.305  17.939  0.00  0.00    -0.552 OA
ATOM     20  H   UNL     1      47.750  18.005  17.065  0.00  0.00    +0.368 HD
ENDBRANCH  18  19
BRANCH   8   9
ATOM      9  C   UNL     1      52.410  19.745  18.238  0.00  0.00    +0.197 C 
BRANCH   9  10
ATOM     10  O   UNL     1      53.104  20.981  18.430  0.00  0.00    -0.585 OA
ATOM     11  H   UNL     1      53.259  21.204  19.357  0.00  0.00    +0.371 HD
ENDBRANCH   9  10
ENDBRANCH   8   9
BRANCH  18  21
ATOM     21  C   UNL     1      48.344  16.740  19.559  0.00  0.00    +0.009 C 
BRANCH  21  22
ATOM     22  C   UNL     1      47.091  16.051  19.014  0.00  0.00    +0.096 C 
BRANCH  22  23
ATOM     23  C   UNL     1      47.491  15.004  18.008  0.00  0.00    -0.178 A 
ATOM     24  C   UNL     1      48.489  14.016  18.171  0.00  0.00    -0.061 A 
ATOM     25  C   UNL     1      48.515  13.296  17.034  0.00  0.00    +0.160 A 
ATOM     26  O   UNL     1      47.591  13.793  16.197  0.00  0.00    -0.178 OA
ATOM     27  C   UNL     1      46.964  14.825  16.783  0.00  0.00    +0.153 A 
ENDBRANCH  22  23
ENDBRANCH  21  22
ENDBRANCH  18  21
TORSDOF 7
ENDMDL
MODEL 5
REMARK VINA RESULT:      -5.0      2.661      4.940
REMARK  Name = ZINC28648780
REMARK  10 active torsions:
REMARK  status: ('A' for Active; 'I' for Inactive)
REMARK    1  A    between atoms: C1_1  and  C2_2
REMARK    2  A    between atoms: C4_5  and  O4_27
REMARK    3  A    between atoms: C6_9  and  C19_24
REMARK    4  A    between atoms: C6_9  and  C20_25
REMARK    5  A    between atoms: C10_13  and  C18_23
REMARK    6  A    between atoms: C11_14  and  C12_15
REMARK    7  A    between atoms: C11_14  and  O2_22
REMARK    8  A    between atoms: C12_15  and  C13_16
REMARK    9  A    between atoms: C13_16  and  C14_17
REMARK   10  A    between atoms: C20_25  and  O3_26
REMARK                            x       y       z     vdW  Elec       q    Type
REMARK                         _______ _______ _______ _____ _____    ______ ____
ROOT
ATOM      1  C   UNL     1      48.437  18.131  18.012  0.00  0.00    +0.012 C 
ATOM      2  C   UNL     1      47.258  18.972  18.505  0.00  0.00    -0.024 C 
ATOM      3  C   UNL     1      47.781  20.162  19.311  0.00  0.00    -0.001 C 
ATOM      4  C   UNL     1      46.602  21.004  19.802  0.00  0.00    +0.164 C 
ATOM      7  C   UNL     1      45.698  20.144  20.689  0.00  0.00    +0.038 C 
ATOM      8  C   UNL     1      44.519  20.986  21.182  0.00  0.00    -0.046 C 
ATOM     12  C   UNL     1      45.043  22.177  21.988  0.00  0.00    +0.024 C 
ATOM     13  C   UNL     1      43.615  20.128  22.069  0.00  0.00    +0.018 C 
ATOM     14  C   UNL     1      43.091  18.937  21.263  0.00  0.00    +0.000 C 
ATOM     15  C   UNL     1      44.271  18.095  20.771  0.00  0.00    +0.020 C 
ATOM     16  C   UNL     1      45.174  18.954  19.883  0.00  0.00    -0.023 C 
ATOM     17  C   UNL     1      44.375  19.464  18.683  0.00  0.00    +0.042 C 
ATOM     18  C   UNL     1      46.354  18.113  19.391  0.00  0.00    +0.152 C 
ENDROOT
BRANCH   4   5
ATOM      5  O   UNL     1      45.855  21.479  18.681  0.00  0.00    -0.536 OA
ATOM      6  H   UNL     1      45.517  22.379  18.786  0.00  0.00    +0.359 HD
ENDBRANCH   4   5
BRANCH  18  19
ATOM     19  O   UNL     1      47.101  17.637  20.513  0.00  0.00    -0.552 OA
ATOM     20  H   UNL     1      46.934  18.123  21.332  0.00  0.00    +0.368 HD
ENDBRANCH  18  19
BRANCH   8   9
ATOM      9  C   UNL     1      43.719  21.495  19.981  0.00  0.00    +0.197 C 
BRANCH   9  10
ATOM     10  O   UNL     1      43.451  22.890  20.143  0.00  0.00    -0.585 OA
ATOM     11  H   UNL     1      42.989  23.107  20.964  0.00  0.00    +0.371 HD
ENDBRANCH   9  10
ENDBRANCH   8   9
BRANCH  18  21
ATOM     21  C   UNL     1      45.830  16.923  18.585  0.00  0.00    +0.009 C 
BRANCH  21  22
ATOM     22  C   UNL     1      46.198  15.621  19.302  0.00  0.00    +0.096 C 
BRANCH  22  23
ATOM     23  C   UNL     1      46.132  14.475  18.326  0.00  0.00    -0.178 A 
ATOM     24  C   UNL     1      45.382  13.286  18.472  0.00  0.00    -0.061 A 
ATOM     25  C   UNL     1      45.613  12.542  17.375  0.00  0.00    +0.160 A 
ATOM     26  O   UNL     1      46.458  13.215  16.577  0.00  0.00    -0.178 OA
ATOM     27  C   UNL     1      46.773  14.389  17.146  0.00  0.00    +0.153 A 
ENDBRANCH  22  23
ENDBRANCH  21  22
ENDBRANCH  18  21
TORSDOF 7
ENDMDL
MODEL 6
REMARK VINA RESULT:      -5.0      2.675      6.963
REMARK  Name = ZINC28648780
REMARK  10 active torsions:
REMARK  status: ('A' for Active; 'I' for Inactive)
REMARK    1  A    between atoms: C1_1  and  C2_2
REMARK    2  A    between atoms: C4_5  and  O4_27
REMARK    3  A    between atoms: C6_9  and  C19_24
REMARK    4  A    between atoms: C6_9  and  C20_25
REMARK    5  A    between atoms: C10_13  and  C18_23
REMARK    6  A    between atoms: C11_14  and  C12_15
REMARK    7  A    between atoms: C11_14  and  O2_22
REMARK    8  A    between atoms: C12_15  and  C13_16
REMARK    9  A    between atoms: C13_16  and  C14_17
REMARK   10  A    between atoms: C20_25  and  O3_26
REMARK                            x       y       z     vdW  Elec       q    Type
REMARK                         _______ _______ _______ _____ _____    ______ ____
ROOT
ATOM      1  C   UNL     1      47.104  19.249  20.975  0.00  0.00    +0.012 C 
ATOM      2  C   UNL     1      48.472  19.381  20.302  0.00  0.00    -0.024 C 
ATOM      3  C   UNL     1      48.556  20.726  19.579  0.00  0.00    -0.001 C 
ATOM      4  C   UNL     1      49.924  20.859  18.906  0.00  0.00    +0.164 C 
ATOM      7  C   UNL     1      50.108  19.724  17.897  0.00  0.00    +0.038 C 
ATOM      8  C   UNL     1      51.475  19.857  17.223  0.00  0.00    -0.046 C 
ATOM     12  C   UNL     1      51.559  21.203  16.500  0.00  0.00    +0.024 C 
ATOM     13  C   UNL     1      51.660  18.723  16.214  0.00  0.00    +0.018 C 
ATOM     14  C   UNL     1      51.576  17.377  16.938  0.00  0.00    +0.000 C 
ATOM     15  C   UNL     1      50.208  17.244  17.610  0.00  0.00    +0.020 C 
ATOM     16  C   UNL     1      50.024  18.378  18.620  0.00  0.00    -0.023 C 
ATOM     17  C   UNL     1      51.124  18.301  19.681  0.00  0.00    +0.042 C 
ATOM     18  C   UNL     1      48.656  18.246  19.293  0.00  0.00    +0.152 C 
ENDROOT
BRANCH   4   5
ATOM      5  O   UNL     1      50.951  20.786  19.897  0.00  0.00    -0.536 OA
ATOM      6  H   UNL     1      50.990  21.556  20.481  0.00  0.00    +0.359 HD
ENDBRANCH   4   5
BRANCH  18  19
ATOM     19  O   UNL     1      47.629  18.319  18.302  0.00  0.00    -0.552 OA
ATOM     20  H   UNL     1      46.782  18.645  18.637  0.00  0.00    +0.368 HD
ENDBRANCH  18  19
BRANCH   8   9
ATOM      9  C   UNL     1      52.575  19.779  18.285  0.00  0.00    +0.197 C 
BRANCH   9  10
ATOM     10  O   UNL     1      53.207  21.055  18.411  0.00  0.00    -0.585 OA
ATOM     11  H   UNL     1      52.837  21.735  17.833  0.00  0.00    +0.371 HD
ENDBRANCH   9  10
ENDBRANCH   8   9
BRANCH  18  21
ATOM     21  C   UNL     1      48.573  16.900  20.017  0.00  0.00    +0.009 C 
BRANCH  21  22
ATOM     22  C   UNL     1      47.511  16.027  19.345  0.00  0.00    +0.096 C 
BRANCH  22  23
ATOM     23  C   UNL     1      46.385  15.772  20.313  0.00  0.00    -0.178 A 
ATOM     24  C   UNL     1      46.468  15.066  21.535  0.00  0.00    -0.061 A 
ATOM     25  C   UNL     1      45.236  15.077  22.077  0.00  0.00    +0.160 A 
ATOM     26  O   UNL     1      44.417  15.750  21.253  0.00  0.00    -0.178 OA
ATOM     27  C   UNL     1      45.108  16.177  20.184  0.00  0.00    +0.153 A 
ENDBRANCH  22  23
ENDBRANCH  21  22
ENDBRANCH  18  21
TORSDOF 7
ENDMDL
MODEL 7
REMARK VINA RESULT:      -4.9      2.396      4.060
REMARK  Name = ZINC28648780
REMARK  10 active torsions:
REMARK  status: ('A' for Active; 'I' for Inactive)
REMARK    1  A    between atoms: C1_1  and  C2_2
REMARK    2  A    between atoms: C4_5  and  O4_27
REMARK    3  A    between atoms: C6_9  and  C19_24
REMARK    4  A    between atoms: C6_9  and  C20_25
REMARK    5  A    between atoms: C10_13  and  C18_23
REMARK    6  A    between atoms: C11_14  and  C12_15
REMARK    7  A    between atoms: C11_14  and  O2_22
REMARK    8  A    between atoms: C12_15  and  C13_16
REMARK    9  A    between atoms: C13_16  and  C14_17
REMARK   10  A    between atoms: C20_25  and  O3_26
REMARK                            x       y       z     vdW  Elec       q    Type
REMARK                         _______ _______ _______ _____ _____    ______ ____
ROOT
ATOM      1  C   UNL     1      43.991  16.031  22.278  0.00  0.00    +0.012 C 
ATOM      2  C   UNL     1      44.201  17.520  21.997  0.00  0.00    -0.024 C 
ATOM      3  C   UNL     1      42.867  18.158  21.604  0.00  0.00    -0.001 C 
ATOM      4  C   UNL     1      43.077  19.648  21.324  0.00  0.00    +0.164 C 
ATOM      7  C   UNL     1      44.080  19.814  20.180  0.00  0.00    +0.038 C 
ATOM      8  C   UNL     1      44.289  21.304  19.899  0.00  0.00    -0.046 C 
ATOM     12  C   UNL     1      42.955  21.942  19.506  0.00  0.00    +0.024 C 
ATOM     13  C   UNL     1      45.292  21.472  18.755  0.00  0.00    +0.018 C 
ATOM     14  C   UNL     1      46.626  20.833  19.148  0.00  0.00    +0.000 C 
ATOM     15  C   UNL     1      46.416  19.344  19.429  0.00  0.00    +0.020 C 
ATOM     16  C   UNL     1      45.414  19.177  20.573  0.00  0.00    -0.023 C 
ATOM     17  C   UNL     1      45.955  19.861  21.830  0.00  0.00    +0.042 C 
ATOM     18  C   UNL     1      45.203  17.687  20.854  0.00  0.00    +0.152 C 
ENDROOT
BRANCH   4   5
ATOM      5  O   UNL     1      43.584  20.287  22.497  0.00  0.00    -0.536 OA
ATOM      6  H   UNL     1      43.530  21.253  22.474  0.00  0.00    +0.359 HD
ENDBRANCH   4   5
BRANCH  18  19
ATOM     19  O   UNL     1      44.698  17.048  19.680  0.00  0.00    -0.552 OA
ATOM     20  H   UNL     1      43.739  16.923  19.682  0.00  0.00    +0.368 HD
ENDBRANCH  18  19
BRANCH   8   9
ATOM      9  C   UNL     1      44.832  21.988  21.156  0.00  0.00    +0.197 C 
BRANCH   9  10
ATOM     10  O   UNL     1      43.963  23.062  21.526  0.00  0.00    -0.585 OA
ATOM     11  H   UNL     1      44.366  23.936  21.451  0.00  0.00    +0.371 HD
ENDBRANCH   9  10
ENDBRANCH   8   9
BRANCH  18  21
ATOM     21  C   UNL     1      46.538  17.050  21.247  0.00  0.00    +0.009 C 
BRANCH  21  22
ATOM     22  C   UNL     1      46.849  15.893  20.295  0.00  0.00    +0.096 C 
BRANCH  22  23
ATOM     23  C   UNL     1      48.006  16.270  19.407  0.00  0.00    -0.178 A 
ATOM     24  C   UNL     1      48.073  16.124  18.003  0.00  0.00    -0.061 A 
ATOM     25  C   UNL     1      49.278  16.585  17.619  0.00  0.00    +0.160 A 
ATOM     26  O   UNL     1      49.939  17.000  18.711  0.00  0.00    -0.178 OA
ATOM     27  C   UNL     1      49.172  16.817  19.798  0.00  0.00    +0.153 A 
ENDBRANCH  22  23
ENDBRANCH  21  22
ENDBRANCH  18  21
TORSDOF 7
ENDMDL
MODEL 8
REMARK VINA RESULT:      -4.8      4.286      7.442
REMARK  Name = ZINC28648780
REMARK  10 active torsions:
REMARK  status: ('A' for Active; 'I' for Inactive)
REMARK    1  A    between atoms: C1_1  and  C2_2
REMARK    2  A    between atoms: C4_5  and  O4_27
REMARK    3  A    between atoms: C6_9  and  C19_24
REMARK    4  A    between atoms: C6_9  and  C20_25
REMARK    5  A    between atoms: C10_13  and  C18_23
REMARK    6  A    between atoms: C11_14  and  C12_15
REMARK    7  A    between atoms: C11_14  and  O2_22
REMARK    8  A    between atoms: C12_15  and  C13_16
REMARK    9  A    between atoms: C13_16  and  C14_17
REMARK   10  A    between atoms: C20_25  and  O3_26
REMARK                            x       y       z     vdW  Elec       q    Type
REMARK                         _______ _______ _______ _____ _____    ______ ____
ROOT
ATOM      1  C   UNL     1      48.286  15.922  20.037  0.00  0.00    +0.012 C 
ATOM      2  C   UNL     1      49.370  16.905  19.589  0.00  0.00    -0.024 C 
ATOM      3  C   UNL     1      48.874  18.338  19.794  0.00  0.00    -0.001 C 
ATOM      4  C   UNL     1      49.957  19.322  19.347  0.00  0.00    +0.164 C 
ATOM      7  C   UNL     1      50.270  19.096  17.867  0.00  0.00    +0.038 C 
ATOM      8  C   UNL     1      51.353  20.081  17.419  0.00  0.00    -0.046 C 
ATOM     12  C   UNL     1      50.857  21.514  17.624  0.00  0.00    +0.024 C 
ATOM     13  C   UNL     1      51.667  19.856  15.939  0.00  0.00    +0.018 C 
ATOM     14  C   UNL     1      52.163  18.423  15.734  0.00  0.00    +0.000 C 
ATOM     15  C   UNL     1      51.080  17.440  16.181  0.00  0.00    +0.020 C 
ATOM     16  C   UNL     1      50.767  17.664  17.662  0.00  0.00    -0.023 C 
ATOM     17  C   UNL     1      52.033  17.440  18.491  0.00  0.00    +0.042 C 
ATOM     18  C   UNL     1      49.683  16.680  18.109  0.00  0.00    +0.152 C 
ENDROOT
BRANCH   4   5
ATOM      5  O   UNL     1      51.139  19.112  20.121  0.00  0.00    -0.536 OA
ATOM      6  H   UNL     1      51.840  19.757  19.952  0.00  0.00    +0.359 HD
ENDBRANCH   4   5
BRANCH  18  19
ATOM     19  O   UNL     1      48.500  16.890  17.335  0.00  0.00    -0.552 OA
ATOM     20  H   UNL     1      48.600  16.672  16.398  0.00  0.00    +0.368 HD
ENDBRANCH  18  19
BRANCH   8   9
ATOM      9  C   UNL     1      52.620  19.856  18.249  0.00  0.00    +0.197 C 
BRANCH   9  10
ATOM     10  O   UNL     1      53.026  21.091  18.842  0.00  0.00    -0.585 OA
ATOM     11  H   UNL     1      53.981  21.239  18.826  0.00  0.00    +0.371 HD
ENDBRANCH   9  10
ENDBRANCH   8   9
BRANCH  18  21
ATOM     21  C   UNL     1      50.180  15.248  17.904  0.00  0.00    +0.009 C 
BRANCH  21  22
ATOM     22  C   UNL     1      49.189  14.486  17.021  0.00  0.00    +0.096 C 
BRANCH  22  23
ATOM     23  C   UNL     1      49.940  13.746  15.945  0.00  0.00    -0.178 A 
ATOM     24  C   UNL     1      51.338  13.757  15.734  0.00  0.00    -0.061 A 
ATOM     25  C   UNL     1      51.578  12.964  14.674  0.00  0.00    +0.160 A 
ATOM     26  O   UNL     1      50.407  12.477  14.235  0.00  0.00    -0.178 OA
ATOM     27  C   UNL     1      49.410  12.944  15.004  0.00  0.00    +0.153 A 
ENDBRANCH  22  23
ENDBRANCH  21  22
ENDBRANCH  18  21
TORSDOF 7
ENDMDL
MODEL 9
REMARK VINA RESULT:      -4.8      2.065      6.719
REMARK  Name = ZINC28648780
REMARK  10 active torsions:
REMARK  status: ('A' for Active; 'I' for Inactive)
REMARK    1  A    between atoms: C1_1  and  C2_2
REMARK    2  A    between atoms: C4_5  and  O4_27
REMARK    3  A    between atoms: C6_9  and  C19_24
REMARK    4  A    between atoms: C6_9  and  C20_25
REMARK    5  A    between atoms: C10_13  and  C18_23
REMARK    6  A    between atoms: C11_14  and  C12_15
REMARK    7  A    between atoms: C11_14  and  O2_22
REMARK    8  A    between atoms: C12_15  and  C13_16
REMARK    9  A    between atoms: C13_16  and  C14_17
REMARK   10  A    between atoms: C20_25  and  O3_26
REMARK                            x       y       z     vdW  Elec       q    Type
REMARK                         _______ _______ _______ _____ _____    ______ ____
ROOT
ATOM      1  C   UNL     1      46.005  18.383  18.012  0.00  0.00    +0.012 C 
ATOM      2  C   UNL     1      47.485  18.733  18.177  0.00  0.00    -0.024 C 
ATOM      3  C   UNL     1      48.302  17.446  18.301  0.00  0.00    -0.001 C 
ATOM      4  C   UNL     1      49.783  17.796  18.464  0.00  0.00    +0.164 C 
ATOM      7  C   UNL     1      49.969  18.643  19.725  0.00  0.00    +0.038 C 
ATOM      8  C   UNL     1      51.450  18.992  19.890  0.00  0.00    -0.046 C 
ATOM     12  C   UNL     1      52.268  17.705  20.013  0.00  0.00    +0.024 C 
ATOM     13  C   UNL     1      51.638  19.839  21.150  0.00  0.00    +0.018 C 
ATOM     14  C   UNL     1      50.820  21.126  21.026  0.00  0.00    +0.000 C 
ATOM     15  C   UNL     1      49.340  20.776  20.862  0.00  0.00    +0.020 C 
ATOM     16  C   UNL     1      49.152  19.931  19.601  0.00  0.00    -0.023 C 
ATOM     17  C   UNL     1      49.627  20.720  18.381  0.00  0.00    +0.042 C 
ATOM     18  C   UNL     1      47.672  19.580  19.437  0.00  0.00    +0.152 C 
ENDROOT
BRANCH   4   5
ATOM      5  O   UNL     1      50.227  18.535  17.325  0.00  0.00    -0.536 OA
ATOM      6  H   UNL     1      51.079  18.976  17.450  0.00  0.00    +0.359 HD
ENDBRANCH   4   5
BRANCH  18  19
ATOM     19  O   UNL     1      47.227  18.841  20.577  0.00  0.00    -0.552 OA
ATOM     20  H   UNL     1      46.303  18.998  20.811  0.00  0.00    +0.368 HD
ENDBRANCH  18  19
BRANCH   8   9
ATOM      9  C   UNL     1      51.925  19.783  18.669  0.00  0.00    +0.197 C 
BRANCH   9  10
ATOM     10  O   UNL     1      52.964  19.058  18.006  0.00  0.00    -0.585 OA
ATOM     11  H   UNL     1      53.484  18.493  18.592  0.00  0.00    +0.371 HD
ENDBRANCH   9  10
ENDBRANCH   8   9
BRANCH  18  21
ATOM     21  C   UNL     1      46.854  20.868  19.313  0.00  0.00    +0.009 C 
BRANCH  21  22
ATOM     22  C   UNL     1      45.887  20.972  20.494  0.00  0.00    +0.096 C 
BRANCH  22  23
ATOM     23  C   UNL     1      44.551  21.469  20.007  0.00  0.00    -0.178 A 
ATOM     24  C   UNL     1      43.513  20.687  19.450  0.00  0.00    -0.061 A 
ATOM     25  C   UNL     1      42.506  21.528  19.154  0.00  0.00    +0.160 A 
ATOM     26  O   UNL     1      42.877  22.771  19.501  0.00  0.00    -0.178 OA
ATOM     27  C   UNL     1      44.113  22.741  20.022  0.00  0.00    +0.153 A 
ENDBRANCH  22  23
ENDBRANCH  21  22
ENDBRANCH  18  21
TORSDOF 7
ENDMDL
