MODEL 1
REMARK VINA RESULT:      -6.6      0.000      0.000
REMARK  Name = ZINC43505251
REMARK  12 active torsions:
REMARK  status: ('A' for Active; 'I' for Inactive)
REMARK    1  A    between atoms: C1_1  and  C2_2
REMARK    2  A    between atoms: C2_2  and  C3_3
REMARK    3  A    between atoms: C3_3  and  C4_5
REMARK    4  A    between atoms: C3_3  and  C27_35
REMARK    5  A    between atoms: C5_6  and  C6_7
REMARK    6  A    between atoms: C6_7  and  C7_9
REMARK    7  A    between atoms: C6_7  and  C8_10
REMARK    8  A    between atoms: C12_16  and  C26_34
REMARK    9  A    between atoms: C20_26  and  C25_33
REMARK   10  A    between atoms: C23_29  and  O1_32
REMARK   11  A    between atoms: C27_35  and  C28_36
REMARK   12  A    between atoms: C27_35  and  C29_37
REMARK                            x       y       z     vdW  Elec       q    Type
REMARK                         _______ _______ _______ _____ _____    ______ ____
ROOT
ATOM     10  C   UNL     1      47.889  18.106  19.826  0.00  0.00    +0.002 C 
ATOM     11  C   UNL     1      46.689  17.848  20.773  0.00  0.00    +0.007 C 
ATOM     12  C   UNL     1      46.237  16.385  20.518  0.00  0.00    +0.010 C 
ATOM     13  C   UNL     1      46.740  16.113  19.096  0.00  0.00    -0.006 C 
ATOM     14  C   UNL     1      46.921  14.651  18.727  0.00  0.00    +0.009 C 
ATOM     15  C   UNL     1      45.554  13.956  18.705  0.00  0.00    +0.058 C 
ATOM     16  C   UNL     1      45.717  12.562  18.175  0.00  0.00    -0.060 C 
ATOM     17  C   UNL     1      46.678  12.217  17.369  0.00  0.00    -0.092 C 
ATOM     18  C   UNL     1      47.781  13.162  16.893  0.00  0.00    -0.009 C 
ATOM     19  C   UNL     1      49.130  12.726  17.468  0.00  0.00    +0.024 C 
ATOM     20  C   UNL     1      47.880  13.072  15.367  0.00  0.00    +0.031 C 
ATOM     21  C   UNL     1      48.116  11.616  14.959  0.00  0.00    +0.033 C 
ATOM     22  C   UNL     1      46.921  10.761  15.384  0.00  0.00    +0.163 C 
ATOM     25  C   UNL     1      46.735  10.775  16.892  0.00  0.00    +0.026 C 
ATOM     26  C   UNL     1      47.529  14.600  17.313  0.00  0.00    -0.004 C 
ATOM     27  C   UNL     1      48.822  15.404  17.205  0.00  0.00    +0.012 C 
ATOM     28  C   UNL     1      48.639  16.849  17.694  0.00  0.00    +0.022 C 
ATOM     29  C   UNL     1      48.146  16.775  19.127  0.00  0.00    -0.056 C 
ATOM     30  C   UNL     1      49.102  15.924  19.966  0.00  0.00    +0.022 C 
ENDROOT
BRANCH  10   9
ATOM      9  C   UNL     1      47.532  19.183  18.800  0.00  0.00    +0.022 C 
ATOM     31  C   UNL     1      46.165  19.780  19.141  0.00  0.00    +0.023 C 
BRANCH   9   8
ATOM      7  C   UNL     1      49.845  19.961  18.718  0.00  0.00    -0.041 C 
ATOM      8  C   UNL     1      48.576  20.269  18.830  0.00  0.00    -0.045 C 
BRANCH   7   3
ATOM      3  C   UNL     1      50.889  21.047  18.747  0.00  0.00    +0.017 C 
BRANCH   3   4
ATOM      4  C   UNL     1      51.983  20.730  17.725  0.00  0.00    -0.018 C 
ATOM      5  C   UNL     1      51.560  21.245  16.349  0.00  0.00    +0.012 C 
ATOM      6  C   UNL     1      52.198  19.217  17.660  0.00  0.00    +0.013 C 
ENDBRANCH   3   4
BRANCH   3   2
ATOM      1  C   UNL     1      52.756  22.005  20.104  0.00  0.00    +0.007 C 
ATOM      2  C   UNL     1      51.505  21.124  20.146  0.00  0.00    +0.008 C 
ENDBRANCH   3   2
ENDBRANCH   7   3
ENDBRANCH   9   8
ENDBRANCH  10   9
BRANCH  22  23
ATOM     23  O   UNL     1      45.725  11.298  14.817  0.00  0.00    -0.565 OA
ATOM     24  H   UNL     1      44.914  10.994  15.247  0.00  0.00    +0.374 HD
ENDBRANCH  22  23
TORSDOF 6
ENDMDL
MODEL 2
REMARK VINA RESULT:      -6.0      3.026      4.203
REMARK  Name = ZINC43505251
REMARK  12 active torsions:
REMARK  status: ('A' for Active; 'I' for Inactive)
REMARK    1  A    between atoms: C1_1  and  C2_2
REMARK    2  A    between atoms: C2_2  and  C3_3
REMARK    3  A    between atoms: C3_3  and  C4_5
REMARK    4  A    between atoms: C3_3  and  C27_35
REMARK    5  A    between atoms: C5_6  and  C6_7
REMARK    6  A    between atoms: C6_7  and  C7_9
REMARK    7  A    between atoms: C6_7  and  C8_10
REMARK    8  A    between atoms: C12_16  and  C26_34
REMARK    9  A    between atoms: C20_26  and  C25_33
REMARK   10  A    between atoms: C23_29  and  O1_32
REMARK   11  A    between atoms: C27_35  and  C28_36
REMARK   12  A    between atoms: C27_35  and  C29_37
REMARK                            x       y       z     vdW  Elec       q    Type
REMARK                         _______ _______ _______ _____ _____    ______ ____
ROOT
ATOM     10  C   UNL     1      44.884  18.656  20.561  0.00  0.00    +0.002 C 
ATOM     11  C   UNL     1      44.203  17.814  21.670  0.00  0.00    +0.007 C 
ATOM     12  C   UNL     1      44.636  16.342  21.428  0.00  0.00    +0.010 C 
ATOM     13  C   UNL     1      44.987  16.327  19.937  0.00  0.00    -0.006 C 
ATOM     14  C   UNL     1      45.913  15.211  19.486  0.00  0.00    +0.009 C 
ATOM     15  C   UNL     1      45.203  13.862  19.646  0.00  0.00    +0.058 C 
ATOM     16  C   UNL     1      46.053  12.782  19.043  0.00  0.00    -0.060 C 
ATOM     17  C   UNL     1      46.906  13.002  18.086  0.00  0.00    -0.092 C 
ATOM     18  C   UNL     1      47.185  14.380  17.484  0.00  0.00    -0.009 C 
ATOM     19  C   UNL     1      48.609  14.823  17.827  0.00  0.00    +0.024 C 
ATOM     20  C   UNL     1      47.090  14.277  15.959  0.00  0.00    +0.031 C 
ATOM     21  C   UNL     1      48.052  13.196  15.461  0.00  0.00    +0.033 C 
ATOM     22  C   UNL     1      47.639  11.838  16.031  0.00  0.00    +0.163 C 
ATOM     25  C   UNL     1      47.705  11.827  17.549  0.00  0.00    +0.026 C 
ATOM     26  C   UNL     1      46.223  15.438  17.995  0.00  0.00    -0.004 C 
ATOM     27  C   UNL     1      46.791  16.828  17.721  0.00  0.00    +0.012 C 
ATOM     28  C   UNL     1      45.890  17.935  18.291  0.00  0.00    +0.022 C 
ATOM     29  C   UNL     1      45.748  17.673  19.778  0.00  0.00    -0.056 C 
ATOM     30  C   UNL     1      47.131  17.567  20.426  0.00  0.00    +0.022 C 
ENDROOT
BRANCH  10   9
ATOM      9  C   UNL     1      43.828  19.279  19.646  0.00  0.00    +0.022 C 
ATOM     31  C   UNL     1      42.432  18.945  20.176  0.00  0.00    +0.023 C 
BRANCH   9   8
ATOM      7  C   UNL     1      45.203  21.293  19.774  0.00  0.00    -0.041 C 
ATOM      8  C   UNL     1      44.010  20.775  19.616  0.00  0.00    -0.045 C 
BRANCH   7   3
ATOM      3  C   UNL     1      45.385  22.788  19.744  0.00  0.00    +0.017 C 
BRANCH   3   4
ATOM      4  C   UNL     1      45.753  23.285  21.144  0.00  0.00    -0.018 C 
ATOM      5  C   UNL     1      47.016  22.567  21.623  0.00  0.00    +0.012 C 
ATOM      6  C   UNL     1      44.603  22.994  22.108  0.00  0.00    +0.013 C 
ENDBRANCH   3   4
BRANCH   3   2
ATOM      1  C   UNL     1      44.384  24.838  18.725  0.00  0.00    +0.007 C 
ATOM      2  C   UNL     1      44.081  23.451  19.295  0.00  0.00    +0.008 C 
ENDBRANCH   3   2
ENDBRANCH   7   3
ENDBRANCH   9   8
ENDBRANCH  10   9
BRANCH  22  23
ATOM     23  O   UNL     1      46.282  11.564  15.676  0.00  0.00    -0.565 OA
ATOM     24  H   UNL     1      45.840  12.292  15.220  0.00  0.00    +0.374 HD
ENDBRANCH  22  23
TORSDOF 6
ENDMDL
MODEL 3
REMARK VINA RESULT:      -5.7      1.837      2.482
REMARK  Name = ZINC43505251
REMARK  12 active torsions:
REMARK  status: ('A' for Active; 'I' for Inactive)
REMARK    1  A    between atoms: C1_1  and  C2_2
REMARK    2  A    between atoms: C2_2  and  C3_3
REMARK    3  A    between atoms: C3_3  and  C4_5
REMARK    4  A    between atoms: C3_3  and  C27_35
REMARK    5  A    between atoms: C5_6  and  C6_7
REMARK    6  A    between atoms: C6_7  and  C7_9
REMARK    7  A    between atoms: C6_7  and  C8_10
REMARK    8  A    between atoms: C12_16  and  C26_34
REMARK    9  A    between atoms: C20_26  and  C25_33
REMARK   10  A    between atoms: C23_29  and  O1_32
REMARK   11  A    between atoms: C27_35  and  C28_36
REMARK   12  A    between atoms: C27_35  and  C29_37
REMARK                            x       y       z     vdW  Elec       q    Type
REMARK                         _______ _______ _______ _____ _____    ______ ____
ROOT
ATOM     10  C   UNL     1      47.593  16.819  19.134  0.00  0.00    +0.002 C 
ATOM     11  C   UNL     1      46.139  16.306  18.978  0.00  0.00    +0.007 C 
ATOM     12  C   UNL     1      46.233  14.950  18.227  0.00  0.00    +0.010 C 
ATOM     13  C   UNL     1      47.567  15.061  17.481  0.00  0.00    -0.006 C 
ATOM     14  C   UNL     1      48.205  13.747  17.068  0.00  0.00    +0.009 C 
ATOM     15  C   UNL     1      47.325  13.057  16.019  0.00  0.00    +0.058 C 
ATOM     16  C   UNL     1      48.041  11.849  15.490  0.00  0.00    -0.060 C 
ATOM     17  C   UNL     1      49.338  11.739  15.482  0.00  0.00    -0.092 C 
ATOM     18  C   UNL     1      50.292  12.795  16.040  0.00  0.00    -0.009 C 
ATOM     19  C   UNL     1      51.013  12.249  17.274  0.00  0.00    +0.024 C 
ATOM     20  C   UNL     1      51.357  13.101  14.982  0.00  0.00    +0.031 C 
ATOM     21  C   UNL     1      52.062  11.803  14.580  0.00  0.00    +0.033 C 
ATOM     22  C   UNL     1      51.053  10.847  13.940  0.00  0.00    +0.163 C 
ATOM     25  C   UNL     1      49.949  10.470  14.913  0.00  0.00    +0.026 C 
ATOM     26  C   UNL     1      49.572  14.072  16.438  0.00  0.00    -0.004 C 
ATOM     27  C   UNL     1      50.460  14.899  17.363  0.00  0.00    +0.012 C 
ATOM     28  C   UNL     1      49.746  16.166  17.859  0.00  0.00    +0.022 C 
ATOM     29  C   UNL     1      48.476  15.717  18.557  0.00  0.00    -0.056 C 
ATOM     30  C   UNL     1      48.811  14.696  19.647  0.00  0.00    +0.022 C 
ENDROOT
BRANCH  10   9
ATOM      9  C   UNL     1      47.785  18.118  18.348  0.00  0.00    +0.022 C 
ATOM     31  C   UNL     1      46.444  18.845  18.232  0.00  0.00    +0.023 C 
BRANCH   9   8
ATOM      7  C   UNL     1      49.474  19.880  18.397  0.00  0.00    -0.041 C 
ATOM      8  C   UNL     1      48.774  18.998  19.068  0.00  0.00    -0.045 C 
BRANCH   7   3
ATOM      3  C   UNL     1      50.462  20.761  19.116  0.00  0.00    +0.017 C 
BRANCH   3   4
ATOM      4  C   UNL     1      51.762  20.831  18.313  0.00  0.00    -0.018 C 
ATOM      5  C   UNL     1      51.441  21.146  16.850  0.00  0.00    +0.012 C 
ATOM      6  C   UNL     1      52.487  19.487  18.398  0.00  0.00    +0.013 C 
ENDBRANCH   3   4
BRANCH   3   2
ATOM      1  C   UNL     1      51.280  21.282  21.419  0.00  0.00    +0.007 C 
ATOM      2  C   UNL     1      50.750  20.179  20.502  0.00  0.00    +0.008 C 
ENDBRANCH   3   2
ENDBRANCH   7   3
ENDBRANCH   9   8
ENDBRANCH  10   9
BRANCH  22  23
ATOM     23  O   UNL     1      50.423  11.491  12.831  0.00  0.00    -0.565 OA
ATOM     24  H   UNL     1      50.188  10.892  12.110  0.00  0.00    +0.374 HD
ENDBRANCH  22  23
TORSDOF 6
ENDMDL
MODEL 4
REMARK VINA RESULT:      -5.6      3.971      6.757
REMARK  Name = ZINC43505251
REMARK  12 active torsions:
REMARK  status: ('A' for Active; 'I' for Inactive)
REMARK    1  A    between atoms: C1_1  and  C2_2
REMARK    2  A    between atoms: C2_2  and  C3_3
REMARK    3  A    between atoms: C3_3  and  C4_5
REMARK    4  A    between atoms: C3_3  and  C27_35
REMARK    5  A    between atoms: C5_6  and  C6_7
REMARK    6  A    between atoms: C6_7  and  C7_9
REMARK    7  A    between atoms: C6_7  and  C8_10
REMARK    8  A    between atoms: C12_16  and  C26_34
REMARK    9  A    between atoms: C20_26  and  C25_33
REMARK   10  A    between atoms: C23_29  and  O1_32
REMARK   11  A    between atoms: C27_35  and  C28_36
REMARK   12  A    between atoms: C27_35  and  C29_37
REMARK                            x       y       z     vdW  Elec       q    Type
REMARK                         _______ _______ _______ _____ _____    ______ ____
ROOT
ATOM     10  C   UNL     1      51.224  18.942  18.584  0.00  0.00    +0.002 C 
ATOM     11  C   UNL     1      51.249  20.414  18.100  0.00  0.00    +0.007 C 
ATOM     12  C   UNL     1      49.905  21.047  18.554  0.00  0.00    +0.010 C 
ATOM     13  C   UNL     1      48.983  19.830  18.693  0.00  0.00    -0.006 C 
ATOM     14  C   UNL     1      47.773  20.018  19.591  0.00  0.00    +0.009 C 
ATOM     15  C   UNL     1      46.826  21.049  18.966  0.00  0.00    +0.058 C 
ATOM     16  C   UNL     1      45.558  21.103  19.766  0.00  0.00    -0.060 C 
ATOM     17  C   UNL     1      45.117  20.101  20.468  0.00  0.00    -0.092 C 
ATOM     18  C   UNL     1      45.844  18.763  20.604  0.00  0.00    -0.009 C 
ATOM     19  C   UNL     1      46.331  18.575  22.043  0.00  0.00    +0.024 C 
ATOM     20  C   UNL     1      44.855  17.633  20.301  0.00  0.00    +0.031 C 
ATOM     21  C   UNL     1      43.643  17.758  21.227  0.00  0.00    +0.033 C 
ATOM     22  C   UNL     1      42.919  19.077  20.953  0.00  0.00    +0.163 C 
ATOM     25  C   UNL     1      43.814  20.273  21.230  0.00  0.00    +0.026 C 
ATOM     26  C   UNL     1      47.046  18.663  19.681  0.00  0.00    -0.004 C 
ATOM     27  C   UNL     1      47.965  17.537  20.149  0.00  0.00    +0.012 C 
ATOM     28  C   UNL     1      49.238  17.446  19.292  0.00  0.00    +0.022 C 
ATOM     29  C   UNL     1      49.925  18.796  19.370  0.00  0.00    -0.056 C 
ATOM     30  C   UNL     1      50.156  19.183  20.833  0.00  0.00    +0.022 C 
ENDROOT
BRANCH  10   9
ATOM      9  C   UNL     1      51.230  17.990  17.387  0.00  0.00    +0.022 C 
ATOM     31  C   UNL     1      51.841  18.697  16.176  0.00  0.00    +0.023 C 
BRANCH   9   8
ATOM      7  C   UNL     1      52.733  16.725  18.837  0.00  0.00    -0.041 C 
ATOM      8  C   UNL     1      52.046  16.769  17.721  0.00  0.00    -0.045 C 
BRANCH   7   3
ATOM      3  C   UNL     1      53.549  15.504  19.172  0.00  0.00    +0.017 C 
BRANCH   3   4
ATOM      4  C   UNL     1      52.903  14.766  20.346  0.00  0.00    -0.018 C 
ATOM      5  C   UNL     1      51.934  13.709  19.814  0.00  0.00    +0.012 C 
ATOM      6  C   UNL     1      52.140  15.763  21.219  0.00  0.00    +0.013 C 
ENDBRANCH   3   4
BRANCH   3   2
ATOM      1  C   UNL     1      55.861  14.690  19.654  0.00  0.00    +0.007 C 
ATOM      2  C   UNL     1      54.968  15.928  19.555  0.00  0.00    +0.008 C 
ENDBRANCH   3   2
ENDBRANCH   7   3
ENDBRANCH   9   8
ENDBRANCH  10   9
BRANCH  22  23
ATOM     23  O   UNL     1      42.558  19.145  19.572  0.00  0.00    -0.565 OA
ATOM     24  H   UNL     1      43.230  19.550  19.009  0.00  0.00    +0.374 HD
ENDBRANCH  22  23
TORSDOF 6
ENDMDL
MODEL 5
REMARK VINA RESULT:      -5.6      1.481      2.184
REMARK  Name = ZINC43505251
REMARK  12 active torsions:
REMARK  status: ('A' for Active; 'I' for Inactive)
REMARK    1  A    between atoms: C1_1  and  C2_2
REMARK    2  A    between atoms: C2_2  and  C3_3
REMARK    3  A    between atoms: C3_3  and  C4_5
REMARK    4  A    between atoms: C3_3  and  C27_35
REMARK    5  A    between atoms: C5_6  and  C6_7
REMARK    6  A    between atoms: C6_7  and  C7_9
REMARK    7  A    between atoms: C6_7  and  C8_10
REMARK    8  A    between atoms: C12_16  and  C26_34
REMARK    9  A    between atoms: C20_26  and  C25_33
REMARK   10  A    between atoms: C23_29  and  O1_32
REMARK   11  A    between atoms: C27_35  and  C28_36
REMARK   12  A    between atoms: C27_35  and  C29_37
REMARK                            x       y       z     vdW  Elec       q    Type
REMARK                         _______ _______ _______ _____ _____    ______ ____
ROOT
ATOM     10  C   UNL     1      46.194  17.466  20.084  0.00  0.00    +0.002 C 
ATOM     11  C   UNL     1      44.971  16.739  20.700  0.00  0.00    +0.007 C 
ATOM     12  C   UNL     1      45.075  15.255  20.254  0.00  0.00    +0.010 C 
ATOM     13  C   UNL     1      45.922  15.337  18.980  0.00  0.00    -0.006 C 
ATOM     14  C   UNL     1      46.634  14.058  18.576  0.00  0.00    +0.009 C 
ATOM     15  C   UNL     1      45.598  12.997  18.186  0.00  0.00    +0.058 C 
ATOM     16  C   UNL     1      46.305  11.798  17.626  0.00  0.00    -0.060 C 
ATOM     17  C   UNL     1      47.471  11.865  17.052  0.00  0.00    -0.092 C 
ATOM     18  C   UNL     1      48.286  13.151  16.912  0.00  0.00    -0.009 C 
ATOM     19  C   UNL     1      49.554  13.064  17.764  0.00  0.00    +0.024 C 
ATOM     20  C   UNL     1      48.722  13.298  15.451  0.00  0.00    +0.031 C 
ATOM     21  C   UNL     1      49.492  12.047  15.022  0.00  0.00    +0.033 C 
ATOM     22  C   UNL     1      48.573  10.826  15.097  0.00  0.00    +0.163 C 
ATOM     25  C   UNL     1      48.084  10.583  16.516  0.00  0.00    +0.026 C 
ATOM     26  C   UNL     1      47.505  14.379  17.347  0.00  0.00    -0.004 C 
ATOM     27  C   UNL     1      48.465  15.539  17.599  0.00  0.00    +0.012 C 
ATOM     28  C   UNL     1      47.731  16.785  18.119  0.00  0.00    +0.022 C 
ATOM     29  C   UNL     1      47.003  16.377  19.386  0.00  0.00    -0.056 C 
ATOM     30  C   UNL     1      47.986  15.746  20.375  0.00  0.00    +0.022 C 
ENDROOT
BRANCH  10   9
ATOM      9  C   UNL     1      45.731  18.515  19.070  0.00  0.00    +0.022 C 
ATOM     31  C   UNL     1      44.262  18.855  19.324  0.00  0.00    +0.023 C 
BRANCH   9   8
ATOM      7  C   UNL     1      47.453  19.842  20.183  0.00  0.00    -0.041 C 
ATOM      8  C   UNL     1      46.568  19.759  19.219  0.00  0.00    -0.045 C 
BRANCH   7   3
ATOM      3  C   UNL     1      48.290  21.086  20.331  0.00  0.00    +0.017 C 
BRANCH   3   4
ATOM      4  C   UNL     1      49.761  20.742  20.088  0.00  0.00    -0.018 C 
ATOM      5  C   UNL     1      50.082  20.903  18.601  0.00  0.00    +0.012 C 
ATOM      6  C   UNL     1      50.024  19.297  20.513  0.00  0.00    +0.013 C 
ENDBRANCH   3   4
BRANCH   3   2
ATOM      1  C   UNL     1      46.925  22.593  21.784  0.00  0.00    +0.007 C 
ATOM      2  C   UNL     1      48.125  21.645  21.746  0.00  0.00    +0.008 C 
ENDBRANCH   3   2
ENDBRANCH   7   3
ENDBRANCH   9   8
ENDBRANCH  10   9
BRANCH  22  23
ATOM     23  O   UNL     1      47.412  11.052  14.296  0.00  0.00    -0.565 OA
ATOM     24  H   UNL     1      46.617  11.260  14.804  0.00  0.00    +0.374 HD
ENDBRANCH  22  23
TORSDOF 6
ENDMDL
MODEL 6
REMARK VINA RESULT:      -5.5      2.681      7.887
REMARK  Name = ZINC43505251
REMARK  12 active torsions:
REMARK  status: ('A' for Active; 'I' for Inactive)
REMARK    1  A    between atoms: C1_1  and  C2_2
REMARK    2  A    between atoms: C2_2  and  C3_3
REMARK    3  A    between atoms: C3_3  and  C4_5
REMARK    4  A    between atoms: C3_3  and  C27_35
REMARK    5  A    between atoms: C5_6  and  C6_7
REMARK    6  A    between atoms: C6_7  and  C7_9
REMARK    7  A    between atoms: C6_7  and  C8_10
REMARK    8  A    between atoms: C12_16  and  C26_34
REMARK    9  A    between atoms: C20_26  and  C25_33
REMARK   10  A    between atoms: C23_29  and  O1_32
REMARK   11  A    between atoms: C27_35  and  C28_36
REMARK   12  A    between atoms: C27_35  and  C29_37
REMARK                            x       y       z     vdW  Elec       q    Type
REMARK                         _______ _______ _______ _____ _____    ______ ____
ROOT
ATOM     10  C   UNL     1      46.120  15.109  18.821  0.00  0.00    +0.002 C 
ATOM     11  C   UNL     1      45.089  16.055  19.488  0.00  0.00    +0.007 C 
ATOM     12  C   UNL     1      45.730  17.470  19.487  0.00  0.00    +0.010 C 
ATOM     13  C   UNL     1      47.231  17.166  19.418  0.00  0.00    -0.006 C 
ATOM     14  C   UNL     1      48.109  18.290  18.895  0.00  0.00    +0.009 C 
ATOM     15  C   UNL     1      48.080  19.463  19.882  0.00  0.00    +0.058 C 
ATOM     16  C   UNL     1      49.078  20.497  19.449  0.00  0.00    -0.060 C 
ATOM     17  C   UNL     1      50.137  20.212  18.749  0.00  0.00    -0.092 C 
ATOM     18  C   UNL     1      50.480  18.811  18.242  0.00  0.00    -0.009 C 
ATOM     19  C   UNL     1      50.387  18.769  16.715  0.00  0.00    +0.024 C 
ATOM     20  C   UNL     1      51.928  18.492  18.624  0.00  0.00    +0.031 C 
ATOM     21  C   UNL     1      52.851  19.578  18.067  0.00  0.00    +0.033 C 
ATOM     22  C   UNL     1      52.504  20.926  18.702  0.00  0.00    +0.163 C 
ATOM     25  C   UNL     1      51.080  21.344  18.377  0.00  0.00    +0.026 C 
ATOM     26  C   UNL     1      49.548  17.751  18.803  0.00  0.00    -0.004 C 
ATOM     27  C   UNL     1      49.644  16.481  17.961  0.00  0.00    +0.012 C 
ATOM     28  C   UNL     1      48.660  15.402  18.440  0.00  0.00    +0.022 C 
ATOM     29  C   UNL     1      47.271  16.008  18.382  0.00  0.00    -0.056 C 
ATOM     30  C   UNL     1      46.996  16.555  16.980  0.00  0.00    +0.022 C 
ENDROOT
BRANCH  10   9
ATOM      9  C   UNL     1      46.614  14.070  19.830  0.00  0.00    +0.022 C 
ATOM     31  C   UNL     1      45.503  13.769  20.838  0.00  0.00    +0.023 C 
BRANCH   9   8
ATOM      7  C   UNL     1      46.534  12.584  17.893  0.00  0.00    -0.041 C 
ATOM      8  C   UNL     1      46.989  12.804  19.103  0.00  0.00    -0.045 C 
BRANCH   7   3
ATOM      3  C   UNL     1      46.909  11.320  17.166  0.00  0.00    +0.017 C 
BRANCH   3   4
ATOM      4  C   UNL     1      48.192  11.553  16.366  0.00  0.00    -0.018 C 
ATOM      5  C   UNL     1      48.081  12.871  15.597  0.00  0.00    +0.012 C 
ATOM      6  C   UNL     1      48.395  10.402  15.379  0.00  0.00    +0.013 C 
ENDBRANCH   3   4
BRANCH   3   2
ATOM      1  C   UNL     1      44.542  11.777  16.507  0.00  0.00    +0.007 C 
ATOM      2  C   UNL     1      45.779  10.926  16.212  0.00  0.00    +0.008 C 
ENDBRANCH   3   2
ENDBRANCH   7   3
ENDBRANCH   9   8
ENDBRANCH  10   9
BRANCH  22  23
ATOM     23  O   UNL     1      52.587  20.818  20.124  0.00  0.00    -0.565 OA
ATOM     24  H   UNL     1      53.429  21.116  20.493  0.00  0.00    +0.374 HD
ENDBRANCH  22  23
TORSDOF 6
ENDMDL
MODEL 7
REMARK VINA RESULT:      -5.3      2.940      6.971
REMARK  Name = ZINC43505251
REMARK  12 active torsions:
REMARK  status: ('A' for Active; 'I' for Inactive)
REMARK    1  A    between atoms: C1_1  and  C2_2
REMARK    2  A    between atoms: C2_2  and  C3_3
REMARK    3  A    between atoms: C3_3  and  C4_5
REMARK    4  A    between atoms: C3_3  and  C27_35
REMARK    5  A    between atoms: C5_6  and  C6_7
REMARK    6  A    between atoms: C6_7  and  C7_9
REMARK    7  A    between atoms: C6_7  and  C8_10
REMARK    8  A    between atoms: C12_16  and  C26_34
REMARK    9  A    between atoms: C20_26  and  C25_33
REMARK   10  A    between atoms: C23_29  and  O1_32
REMARK   11  A    between atoms: C27_35  and  C28_36
REMARK   12  A    between atoms: C27_35  and  C29_37
REMARK                            x       y       z     vdW  Elec       q    Type
REMARK                         _______ _______ _______ _____ _____    ______ ____
ROOT
ATOM     10  C   UNL     1      51.104  18.786  18.265  0.00  0.00    +0.002 C 
ATOM     11  C   UNL     1      51.249  20.316  18.064  0.00  0.00    +0.007 C 
ATOM     12  C   UNL     1      49.992  20.963  18.705  0.00  0.00    +0.010 C 
ATOM     13  C   UNL     1      48.964  19.827  18.667  0.00  0.00    -0.006 C 
ATOM     14  C   UNL     1      47.815  19.942  19.654  0.00  0.00    +0.009 C 
ATOM     15  C   UNL     1      46.946  21.152  19.289  0.00  0.00    +0.058 C 
ATOM     16  C   UNL     1      45.723  21.161  20.157  0.00  0.00    -0.060 C 
ATOM     17  C   UNL     1      45.217  20.084  20.683  0.00  0.00    -0.092 C 
ATOM     18  C   UNL     1      45.818  18.687  20.524  0.00  0.00    -0.009 C 
ATOM     19  C   UNL     1      46.342  18.186  21.872  0.00  0.00    +0.024 C 
ATOM     20  C   UNL     1      44.714  17.727  20.073  0.00  0.00    +0.031 C 
ATOM     21  C   UNL     1      43.558  17.775  21.075  0.00  0.00    +0.033 C 
ATOM     22  C   UNL     1      42.952  19.180  21.095  0.00  0.00    +0.163 C 
ATOM     25  C   UNL     1      43.969  20.219  21.538  0.00  0.00    +0.026 C 
ATOM     26  C   UNL     1      46.966  18.663  19.530  0.00  0.00    -0.004 C 
ATOM     27  C   UNL     1      47.791  17.394  19.725  0.00  0.00    +0.012 C 
ATOM     28  C   UNL     1      49.013  17.358  18.794  0.00  0.00    +0.022 C 
ATOM     29  C   UNL     1      49.829  18.604  19.083  0.00  0.00    -0.056 C 
ATOM     30  C   UNL     1      50.155  18.682  20.576  0.00  0.00    +0.022 C 
ENDROOT
BRANCH  10   9
ATOM      9  C   UNL     1      50.969  18.084  16.912  0.00  0.00    +0.022 C 
ATOM     31  C   UNL     1      51.584  18.961  15.819  0.00  0.00    +0.023 C 
BRANCH   9   8
ATOM      7  C   UNL     1      51.012  15.642  16.880  0.00  0.00    -0.041 C 
ATOM      8  C   UNL     1      51.690  16.761  16.959  0.00  0.00    -0.045 C 
BRANCH   7   3
ATOM      3  C   UNL     1      51.732  14.320  16.927  0.00  0.00    +0.017 C 
BRANCH   3   4
ATOM      4  C   UNL     1      50.951  13.285  16.116  0.00  0.00    -0.018 C 
ATOM      5  C   UNL     1      51.461  13.277  14.674  0.00  0.00    +0.012 C 
ATOM      6  C   UNL     1      49.464  13.642  16.129  0.00  0.00    +0.013 C 
ENDBRANCH   3   4
BRANCH   3   2
ATOM      1  C   UNL     1      52.527  12.483  18.423  0.00  0.00    +0.007 C 
ATOM      2  C   UNL     1      51.843  13.851  18.379  0.00  0.00    +0.008 C 
ENDBRANCH   3   2
ENDBRANCH   7   3
ENDBRANCH   9   8
ENDBRANCH  10   9
BRANCH  22  23
ATOM     23  O   UNL     1      42.544  19.543  19.774  0.00  0.00    -0.565 OA
ATOM     24  H   UNL     1      42.218  18.802  19.246  0.00  0.00    +0.374 HD
ENDBRANCH  22  23
TORSDOF 6
ENDMDL
MODEL 8
REMARK VINA RESULT:      -5.3      3.048      6.869
REMARK  Name = ZINC43505251
REMARK  12 active torsions:
REMARK  status: ('A' for Active; 'I' for Inactive)
REMARK    1  A    between atoms: C1_1  and  C2_2
REMARK    2  A    between atoms: C2_2  and  C3_3
REMARK    3  A    between atoms: C3_3  and  C4_5
REMARK    4  A    between atoms: C3_3  and  C27_35
REMARK    5  A    between atoms: C5_6  and  C6_7
REMARK    6  A    between atoms: C6_7  and  C7_9
REMARK    7  A    between atoms: C6_7  and  C8_10
REMARK    8  A    between atoms: C12_16  and  C26_34
REMARK    9  A    between atoms: C20_26  and  C25_33
REMARK   10  A    between atoms: C23_29  and  O1_32
REMARK   11  A    between atoms: C27_35  and  C28_36
REMARK   12  A    between atoms: C27_35  and  C29_37
REMARK                            x       y       z     vdW  Elec       q    Type
REMARK                         _______ _______ _______ _____ _____    ______ ____
ROOT
ATOM     10  C   UNL     1      45.844  15.117  20.555  0.00  0.00    +0.002 C 
ATOM     11  C   UNL     1      45.653  14.475  19.158  0.00  0.00    +0.007 C 
ATOM     12  C   UNL     1      46.798  15.024  18.264  0.00  0.00    +0.010 C 
ATOM     13  C   UNL     1      47.170  16.341  18.952  0.00  0.00    -0.006 C 
ATOM     14  C   UNL     1      48.559  16.875  18.652  0.00  0.00    +0.009 C 
ATOM     15  C   UNL     1      48.649  17.268  17.173  0.00  0.00    +0.058 C 
ATOM     16  C   UNL     1      49.961  17.950  16.921  0.00  0.00    -0.060 C 
ATOM     17  C   UNL     1      50.616  18.591  17.844  0.00  0.00    -0.092 C 
ATOM     18  C   UNL     1      50.165  18.697  19.301  0.00  0.00    -0.009 C 
ATOM     19  C   UNL     1      51.134  17.935  20.207  0.00  0.00    +0.024 C 
ATOM     20  C   UNL     1      50.203  20.170  19.720  0.00  0.00    +0.031 C 
ATOM     21  C   UNL     1      51.608  20.729  19.482  0.00  0.00    +0.033 C 
ATOM     22  C   UNL     1      51.936  20.677  17.989  0.00  0.00    +0.163 C 
ATOM     25  C   UNL     1      51.932  19.250  17.467  0.00  0.00    +0.026 C 
ATOM     26  C   UNL     1      48.771  18.132  19.516  0.00  0.00    -0.004 C 
ATOM     27  C   UNL     1      48.546  17.865  21.001  0.00  0.00    +0.012 C 
ATOM     28  C   UNL     1      47.177  17.217  21.264  0.00  0.00    +0.022 C 
ATOM     29  C   UNL     1      47.127  15.936  20.452  0.00  0.00    -0.056 C 
ATOM     30  C   UNL     1      48.334  15.057  20.787  0.00  0.00    +0.022 C 
ENDROOT
BRANCH  10   9
ATOM      9  C   UNL     1      44.660  16.027  20.886  0.00  0.00    +0.022 C 
ATOM     31  C   UNL     1      44.621  16.285  22.394  0.00  0.00    +0.023 C 
BRANCH   9   8
ATOM      7  C   UNL     1      43.941  18.297  20.342  0.00  0.00    -0.041 C 
ATOM      8  C   UNL     1      44.814  17.337  20.157  0.00  0.00    -0.045 C 
BRANCH   7   3
ATOM      3  C   UNL     1      44.095  19.606  19.613  0.00  0.00    +0.017 C 
BRANCH   3   4
ATOM      4  C   UNL     1      42.742  20.034  19.042  0.00  0.00    -0.018 C 
ATOM      5  C   UNL     1      42.574  21.545  19.205  0.00  0.00    +0.012 C 
ATOM      6  C   UNL     1      41.620  19.312  19.792  0.00  0.00    +0.013 C 
ENDBRANCH   3   4
BRANCH   3   2
ATOM      1  C   UNL     1      46.219  20.471  18.621  0.00  0.00    +0.007 C 
ATOM      2  C   UNL     1      45.100  19.438  18.472  0.00  0.00    +0.008 C 
ENDBRANCH   3   2
ENDBRANCH   7   3
ENDBRANCH   9   8
ENDBRANCH  10   9
BRANCH  22  23
ATOM     23  O   UNL     1      50.936  21.387  17.255  0.00  0.00    -0.565 OA
ATOM     24  H   UNL     1      50.256  20.820  16.867  0.00  0.00    +0.374 HD
ENDBRANCH  22  23
TORSDOF 6
ENDMDL
MODEL 9
REMARK VINA RESULT:      -5.3      3.136      8.178
REMARK  Name = ZINC43505251
REMARK  12 active torsions:
REMARK  status: ('A' for Active; 'I' for Inactive)
REMARK    1  A    between atoms: C1_1  and  C2_2
REMARK    2  A    between atoms: C2_2  and  C3_3
REMARK    3  A    between atoms: C3_3  and  C4_5
REMARK    4  A    between atoms: C3_3  and  C27_35
REMARK    5  A    between atoms: C5_6  and  C6_7
REMARK    6  A    between atoms: C6_7  and  C7_9
REMARK    7  A    between atoms: C6_7  and  C8_10
REMARK    8  A    between atoms: C12_16  and  C26_34
REMARK    9  A    between atoms: C20_26  and  C25_33
REMARK   10  A    between atoms: C23_29  and  O1_32
REMARK   11  A    between atoms: C27_35  and  C28_36
REMARK   12  A    between atoms: C27_35  and  C29_37
REMARK                            x       y       z     vdW  Elec       q    Type
REMARK                         _______ _______ _______ _____ _____    ______ ____
ROOT
ATOM     10  C   UNL     1      49.295  15.961  18.833  0.00  0.00    +0.002 C 
ATOM     11  C   UNL     1      50.539  16.678  19.417  0.00  0.00    +0.007 C 
ATOM     12  C   UNL     1      50.024  17.996  20.057  0.00  0.00    +0.010 C 
ATOM     13  C   UNL     1      48.717  18.257  19.300  0.00  0.00    -0.006 C 
ATOM     14  C   UNL     1      47.717  19.159  20.001  0.00  0.00    +0.009 C 
ATOM     15  C   UNL     1      48.293  20.575  20.112  0.00  0.00    +0.058 C 
ATOM     16  C   UNL     1      47.239  21.498  20.648  0.00  0.00    -0.060 C 
ATOM     17  C   UNL     1      45.964  21.283  20.497  0.00  0.00    -0.092 C 
ATOM     18  C   UNL     1      45.377  20.057  19.799  0.00  0.00    -0.009 C 
ATOM     19  C   UNL     1      44.632  19.184  20.811  0.00  0.00    +0.024 C 
ATOM     20  C   UNL     1      44.358  20.527  18.756  0.00  0.00    +0.031 C 
ATOM     21  C   UNL     1      43.299  21.397  19.438  0.00  0.00    +0.033 C 
ATOM     22  C   UNL     1      43.958  22.649  20.020  0.00  0.00    +0.163 C 
ATOM     25  C   UNL     1      44.990  22.294  21.077  0.00  0.00    +0.026 C 
ATOM     26  C   UNL     1      46.445  19.205  19.134  0.00  0.00    -0.004 C 
ATOM     27  C   UNL     1      45.888  17.815  18.840  0.00  0.00    +0.012 C 
ATOM     28  C   UNL     1      46.955  16.887  18.238  0.00  0.00    +0.022 C 
ATOM     29  C   UNL     1      48.105  16.831  19.226  0.00  0.00    -0.056 C 
ATOM     30  C   UNL     1      47.590  16.414  20.606  0.00  0.00    +0.022 C 
ENDROOT
BRANCH  10   9
ATOM      9  C   UNL     1      49.403  15.868  17.310  0.00  0.00    +0.022 C 
ATOM     31  C   UNL     1      50.798  16.319  16.869  0.00  0.00    +0.023 C 
BRANCH   9   8
ATOM      7  C   UNL     1      47.986  14.059  16.484  0.00  0.00    -0.041 C 
ATOM      8  C   UNL     1      49.176  14.442  16.877  0.00  0.00    -0.045 C 
BRANCH   7   3
ATOM      3  C   UNL     1      47.760  12.634  16.051  0.00  0.00    +0.017 C 
BRANCH   3   4
ATOM      4  C   UNL     1      46.715  11.985  16.961  0.00  0.00    -0.018 C 
ATOM      5  C   UNL     1      45.838  11.040  16.137  0.00  0.00    +0.012 C 
ATOM      6  C   UNL     1      45.842  13.071  17.591  0.00  0.00    +0.013 C 
ENDBRANCH   3   4
BRANCH   3   2
ATOM      1  C   UNL     1      49.405  11.242  14.787  0.00  0.00    +0.007 C 
ATOM      2  C   UNL     1      49.074  11.856  16.148  0.00  0.00    +0.008 C 
ENDBRANCH   3   2
ENDBRANCH   7   3
ENDBRANCH   9   8
ENDBRANCH  10   9
BRANCH  22  23
ATOM     23  O   UNL     1      44.653  23.347  18.985  0.00  0.00    -0.565 OA
ATOM     24  H   UNL     1      44.816  24.279  19.180  0.00  0.00    +0.374 HD
ENDBRANCH  22  23
TORSDOF 6
ENDMDL
