MODEL 1
REMARK VINA RESULT:      -5.9      0.000      0.000
REMARK  Name = ZINC14490613
REMARK  4 active torsions:
REMARK  status: ('A' for Active; 'I' for Inactive)
REMARK    1  A    between atoms: C1_1  and  C2_2
REMARK    2  A    between atoms: C8_10  and  O5_18
REMARK    3  A    between atoms: C11_13  and  O4_17
REMARK    4  A    between atoms: O5_18  and  C14_19
REMARK                            x       y       z     vdW  Elec       q    Type
REMARK                         _______ _______ _______ _____ _____    ______ ____
ROOT
ATOM      1  C   UNL     1      45.862  25.420  20.697  0.00  0.00    +0.202 C 
ATOM      2  C   UNL     1      45.975  23.964  21.067  0.00  0.00    +0.102 A 
ATOM      3  C   UNL     1      45.169  22.981  20.635  0.00  0.00    -0.254 A 
ATOM      4  C   UNL     1      45.676  21.732  21.269  0.00  0.00    -0.243 A 
ATOM      5  C   UNL     1      45.015  20.445  21.008  0.00  0.00    +0.469 C 
ATOM      6  C   UNL     1      43.714  20.490  20.298  0.00  0.00    -0.138 A 
ATOM      7  C   UNL     1      42.947  19.321  20.226  0.00  0.00    +0.165 A 
ATOM     10  C   UNL     1      41.723  19.329  19.568  0.00  0.00    -0.027 A 
ATOM     11  C   UNL     1      41.253  20.485  18.983  0.00  0.00    +0.064 A 
ATOM     12  C   UNL     1      41.999  21.657  19.042  0.00  0.00    +0.117 A 
ATOM     15  C   UNL     1      43.234  21.671  19.699  0.00  0.00    -0.104 A 
ATOM     16  O   UNL     1      45.512  19.392  21.359  0.00  0.00    -0.417 OA
ATOM     17  C   UNL     1      46.731  22.101  22.012  0.00  0.00    +0.297 A 
ATOM     18  C   UNL     1      44.003  22.939  19.742  0.00  0.00    +0.469 C 
ATOM     19  O   UNL     1      43.681  23.901  19.070  0.00  0.00    -0.415 OA
ATOM     20  O   UNL     1      46.900  23.429  21.885  0.00  0.00    -0.174 OA
ENDROOT
BRANCH   7   8
ATOM      8  O   UNL     1      43.401  18.178  20.799  0.00  0.00    -0.284 OA
ATOM      9  C   UNL     1      42.665  17.677  21.917  0.00  0.00    +0.247 C 
ENDBRANCH   7   8
BRANCH  12  13
ATOM     13  O   UNL     1      41.527  22.790  18.461  0.00  0.00    -0.473 OA
ATOM     14  H   UNL     1      41.143  22.652  17.584  0.00  0.00    +0.394 HD
ENDBRANCH  12  13
TORSDOF 2
ENDMDL
MODEL 2
REMARK VINA RESULT:      -5.2      3.688      6.539
REMARK  Name = ZINC14490613
REMARK  4 active torsions:
REMARK  status: ('A' for Active; 'I' for Inactive)
REMARK    1  A    between atoms: C1_1  and  C2_2
REMARK    2  A    between atoms: C8_10  and  O5_18
REMARK    3  A    between atoms: C11_13  and  O4_17
REMARK    4  A    between atoms: O5_18  and  C14_19
REMARK                            x       y       z     vdW  Elec       q    Type
REMARK                         _______ _______ _______ _____ _____    ______ ____
ROOT
ATOM      1  C   UNL     1      46.350  13.290  18.833  0.00  0.00    +0.202 C 
ATOM      2  C   UNL     1      46.302  14.715  18.345  0.00  0.00    +0.102 A 
ATOM      3  C   UNL     1      45.763  15.752  19.006  0.00  0.00    -0.254 A 
ATOM      4  C   UNL     1      45.958  16.939  18.126  0.00  0.00    -0.243 A 
ATOM      5  C   UNL     1      45.478  18.263  18.549  0.00  0.00    +0.469 C 
ATOM      6  C   UNL     1      44.605  18.310  19.747  0.00  0.00    -0.138 A 
ATOM      7  C   UNL     1      43.950  19.508  20.053  0.00  0.00    +0.165 A 
ATOM     10  C   UNL     1      43.124  19.587  21.168  0.00  0.00    -0.027 A 
ATOM     11  C   UNL     1      42.943  18.489  21.981  0.00  0.00    +0.064 A 
ATOM     12  C   UNL     1      43.585  17.289  21.696  0.00  0.00    +0.117 A 
ATOM     15  C   UNL     1      44.421  17.188  20.578  0.00  0.00    -0.104 A 
ATOM     16  O   UNL     1      45.784  19.273  17.943  0.00  0.00    -0.417 OA
ATOM     17  C   UNL     1      46.592  16.485  17.034  0.00  0.00    +0.297 A 
ATOM     18  C   UNL     1      45.090  15.893  20.305  0.00  0.00    +0.469 C 
ATOM     19  O   UNL     1      45.082  14.988  21.118  0.00  0.00    -0.415 OA
ATOM     20  O   UNL     1      46.791  15.162  17.174  0.00  0.00    -0.174 OA
ENDROOT
BRANCH   7   8
ATOM      8  O   UNL     1      44.122  20.595  19.259  0.00  0.00    -0.284 OA
ATOM      9  C   UNL     1      44.065  21.876  19.891  0.00  0.00    +0.247 C 
ENDBRANCH   7   8
BRANCH  12  13
ATOM     13  O   UNL     1      43.401  16.214  22.503  0.00  0.00    -0.473 OA
ATOM     14  H   UNL     1      42.776  16.367  23.226  0.00  0.00    +0.394 HD
ENDBRANCH  12  13
TORSDOF 2
ENDMDL
MODEL 3
REMARK VINA RESULT:      -5.2      3.539      5.116
REMARK  Name = ZINC14490613
REMARK  4 active torsions:
REMARK  status: ('A' for Active; 'I' for Inactive)
REMARK    1  A    between atoms: C1_1  and  C2_2
REMARK    2  A    between atoms: C8_10  and  O5_18
REMARK    3  A    between atoms: C11_13  and  O4_17
REMARK    4  A    between atoms: O5_18  and  C14_19
REMARK                            x       y       z     vdW  Elec       q    Type
REMARK                         _______ _______ _______ _____ _____    ______ ____
ROOT
ATOM      1  C   UNL     1      41.365  21.232  18.677  0.00  0.00    +0.202 C 
ATOM      2  C   UNL     1      41.524  20.161  19.726  0.00  0.00    +0.102 A 
ATOM      3  C   UNL     1      42.580  19.343  19.857  0.00  0.00    -0.254 A 
ATOM      4  C   UNL     1      42.275  18.469  21.025  0.00  0.00    -0.243 A 
ATOM      5  C   UNL     1      43.234  17.441  21.453  0.00  0.00    +0.469 C 
ATOM      6  C   UNL     1      44.374  17.165  20.545  0.00  0.00    -0.138 A 
ATOM      7  C   UNL     1      45.181  16.050  20.801  0.00  0.00    +0.165 A 
ATOM     10  C   UNL     1      46.256  15.762  19.970  0.00  0.00    -0.027 A 
ATOM     11  C   UNL     1      46.538  16.569  18.889  0.00  0.00    +0.064 A 
ATOM     12  C   UNL     1      45.750  17.683  18.617  0.00  0.00    +0.117 A 
ATOM     15  C   UNL     1      44.662  17.990  19.442  0.00  0.00    -0.104 A 
ATOM     16  O   UNL     1      43.098  16.844  22.505  0.00  0.00    -0.417 OA
ATOM     17  C   UNL     1      41.069  18.858  21.468  0.00  0.00    +0.297 A 
ATOM     18  C   UNL     1      43.843  19.185  19.122  0.00  0.00    +0.469 C 
ATOM     19  O   UNL     1      44.200  19.997  18.289  0.00  0.00    -0.415 OA
ATOM     20  O   UNL     1      40.632  19.864  20.689  0.00  0.00    -0.174 OA
ENDROOT
BRANCH   7   8
ATOM      8  O   UNL     1      44.912  15.250  21.863  0.00  0.00    -0.284 OA
ATOM      9  C   UNL     1      45.464  13.931  21.838  0.00  0.00    +0.247 C 
ENDBRANCH   7   8
BRANCH  12  13
ATOM     13  O   UNL     1      46.037  18.471  17.551  0.00  0.00    -0.473 OA
ATOM     14  H   UNL     1      46.720  19.134  17.724  0.00  0.00    +0.394 HD
ENDBRANCH  12  13
TORSDOF 2
ENDMDL
MODEL 4
REMARK VINA RESULT:      -5.2     20.554     22.691
REMARK  Name = ZINC14490613
REMARK  4 active torsions:
REMARK  status: ('A' for Active; 'I' for Inactive)
REMARK    1  A    between atoms: C1_1  and  C2_2
REMARK    2  A    between atoms: C8_10  and  O5_18
REMARK    3  A    between atoms: C11_13  and  O4_17
REMARK    4  A    between atoms: O5_18  and  C14_19
REMARK                            x       y       z     vdW  Elec       q    Type
REMARK                         _______ _______ _______ _____ _____    ______ ____
ROOT
ATOM      1  C   UNL     1      58.247  31.546   3.244  0.00  0.00    +0.202 C 
ATOM      2  C   UNL     1      56.862  31.643   2.658  0.00  0.00    +0.102 A 
ATOM      3  C   UNL     1      55.786  32.161   3.270  0.00  0.00    -0.254 A 
ATOM      4  C   UNL     1      54.664  32.033   2.298  0.00  0.00    -0.243 A 
ATOM      5  C   UNL     1      53.319  32.509   2.650  0.00  0.00    +0.469 C 
ATOM      6  C   UNL     1      53.089  32.889   4.065  0.00  0.00    -0.138 A 
ATOM      7  C   UNL     1      51.778  33.132   4.491  0.00  0.00    +0.165 A 
ATOM     10  C   UNL     1      51.528  33.489   5.810  0.00  0.00    -0.027 A 
ATOM     11  C   UNL     1      52.565  33.606   6.710  0.00  0.00    +0.064 A 
ATOM     12  C   UNL     1      53.875  33.370   6.308  0.00  0.00    +0.117 A 
ATOM     15  C   UNL     1      54.149  33.009   4.984  0.00  0.00    -0.104 A 
ATOM     16  O   UNL     1      52.434  32.588   1.818  0.00  0.00    -0.417 OA
ATOM     17  C   UNL     1      55.189  31.453   1.208  0.00  0.00    +0.297 A 
ATOM     18  C   UNL     1      55.558  32.764   4.591  0.00  0.00    +0.469 C 
ATOM     19  O   UNL     1      56.484  33.049   5.328  0.00  0.00    -0.415 OA
ATOM     20  O   UNL     1      56.496  31.225   1.432  0.00  0.00    -0.174 OA
ENDROOT
BRANCH   7   8
ATOM      8  O   UNL     1      50.750  33.020   3.612  0.00  0.00    -0.284 OA
ATOM      9  C   UNL     1      49.832  34.114   3.545  0.00  0.00    +0.247 C 
ENDBRANCH   7   8
BRANCH  12  13
ATOM     13  O   UNL     1      54.890  33.489   7.202  0.00  0.00    -0.473 OA
ATOM     14  H   UNL     1      54.614  33.825   8.067  0.00  0.00    +0.394 HD
ENDBRANCH  12  13
TORSDOF 2
ENDMDL
MODEL 5
REMARK VINA RESULT:      -5.1      3.830      5.694
REMARK  Name = ZINC14490613
REMARK  4 active torsions:
REMARK  status: ('A' for Active; 'I' for Inactive)
REMARK    1  A    between atoms: C1_1  and  C2_2
REMARK    2  A    between atoms: C8_10  and  O5_18
REMARK    3  A    between atoms: C11_13  and  O4_17
REMARK    4  A    between atoms: O5_18  and  C14_19
REMARK                            x       y       z     vdW  Elec       q    Type
REMARK                         _______ _______ _______ _____ _____    ______ ____
ROOT
ATOM      1  C   UNL     1      42.808  20.701  19.489  0.00  0.00    +0.202 C 
ATOM      2  C   UNL     1      43.026  19.479  20.345  0.00  0.00    +0.102 A 
ATOM      3  C   UNL     1      43.903  18.494  20.096  0.00  0.00    -0.254 A 
ATOM      4  C   UNL     1      43.750  17.522  21.214  0.00  0.00    -0.243 A 
ATOM      5  C   UNL     1      44.571  16.304  21.257  0.00  0.00    +0.469 C 
ATOM      6  C   UNL     1      45.362  15.984  20.043  0.00  0.00    -0.138 A 
ATOM      7  C   UNL     1      45.979  14.730  19.956  0.00  0.00    +0.165 A 
ATOM     10  C   UNL     1      46.726  14.398  18.832  0.00  0.00    -0.027 A 
ATOM     11  C   UNL     1      46.867  15.297  17.797  0.00  0.00    +0.064 A 
ATOM     12  C   UNL     1      46.263  16.548  17.864  0.00  0.00    +0.117 A 
ATOM     15  C   UNL     1      45.507  16.903  18.986  0.00  0.00    -0.104 A 
ATOM     16  O   UNL     1      44.602  15.591  22.243  0.00  0.00    -0.417 OA
ATOM     17  C   UNL     1      42.798  18.029  22.013  0.00  0.00    +0.297 A 
ATOM     18  C   UNL     1      44.877  18.245  19.024  0.00  0.00    +0.469 C 
ATOM     19  O   UNL     1      45.154  19.101  18.205  0.00  0.00    -0.415 OA
ATOM     20  O   UNL     1      42.374  19.193  21.487  0.00  0.00    -0.174 OA
ENDROOT
BRANCH   7   8
ATOM      8  O   UNL     1      45.847  13.839  20.970  0.00  0.00    -0.284 OA
ATOM      9  C   UNL     1      47.040  13.204  21.435  0.00  0.00    +0.247 C 
ENDBRANCH   7   8
BRANCH  12  13
ATOM     13  O   UNL     1      46.409  17.426  16.839  0.00  0.00    -0.473 OA
ATOM     14  H   UNL     1      45.960  17.158  16.025  0.00  0.00    +0.394 HD
ENDBRANCH  12  13
TORSDOF 2
ENDMDL
MODEL 6
REMARK VINA RESULT:      -5.0      1.451      4.513
REMARK  Name = ZINC14490613
REMARK  4 active torsions:
REMARK  status: ('A' for Active; 'I' for Inactive)
REMARK    1  A    between atoms: C1_1  and  C2_2
REMARK    2  A    between atoms: C8_10  and  O5_18
REMARK    3  A    between atoms: C11_13  and  O4_17
REMARK    4  A    between atoms: O5_18  and  C14_19
REMARK                            x       y       z     vdW  Elec       q    Type
REMARK                         _______ _______ _______ _____ _____    ______ ____
ROOT
ATOM      1  C   UNL     1      40.590  21.827  18.014  0.00  0.00    +0.202 C 
ATOM      2  C   UNL     1      41.324  20.832  18.876  0.00  0.00    +0.102 A 
ATOM      3  C   UNL     1      42.406  21.092  19.627  0.00  0.00    -0.254 A 
ATOM      4  C   UNL     1      42.762  19.805  20.286  0.00  0.00    -0.243 A 
ATOM      5  C   UNL     1      43.917  19.729  21.193  0.00  0.00    +0.469 C 
ATOM      6  C   UNL     1      44.822  20.904  21.227  0.00  0.00    -0.138 A 
ATOM      7  C   UNL     1      46.044  20.790  21.900  0.00  0.00    +0.165 A 
ATOM     10  C   UNL     1      46.916  21.870  21.950  0.00  0.00    -0.027 A 
ATOM     11  C   UNL     1      46.588  23.061  21.339  0.00  0.00    +0.064 A 
ATOM     12  C   UNL     1      45.378  23.196  20.666  0.00  0.00    +0.117 A 
ATOM     15  C   UNL     1      44.486  22.120  20.603  0.00  0.00    -0.104 A 
ATOM     16  O   UNL     1      44.119  18.749  21.884  0.00  0.00    -0.417 OA
ATOM     17  C   UNL     1      41.855  18.912  19.860  0.00  0.00    +0.297 A 
ATOM     18  C   UNL     1      43.205  22.300  19.876  0.00  0.00    +0.469 C 
ATOM     19  O   UNL     1      42.834  23.397  19.503  0.00  0.00    -0.415 OA
ATOM     20  O   UNL     1      41.005  19.533  19.022  0.00  0.00    -0.174 OA
ENDROOT
BRANCH   7   8
ATOM      8  O   UNL     1      46.376  19.621  22.505  0.00  0.00    -0.284 OA
ATOM      9  C   UNL     1      47.666  19.081  22.208  0.00  0.00    +0.247 C 
ENDBRANCH   7   8
BRANCH  12  13
ATOM     13  O   UNL     1      45.064  24.374  20.068  0.00  0.00    -0.473 OA
ATOM     14  H   UNL     1      44.975  24.315  19.106  0.00  0.00    +0.394 HD
ENDBRANCH  12  13
TORSDOF 2
ENDMDL
MODEL 7
REMARK VINA RESULT:      -5.0      3.708      6.140
REMARK  Name = ZINC14490613
REMARK  4 active torsions:
REMARK  status: ('A' for Active; 'I' for Inactive)
REMARK    1  A    between atoms: C1_1  and  C2_2
REMARK    2  A    between atoms: C8_10  and  O5_18
REMARK    3  A    between atoms: C11_13  and  O4_17
REMARK    4  A    between atoms: O5_18  and  C14_19
REMARK                            x       y       z     vdW  Elec       q    Type
REMARK                         _______ _______ _______ _____ _____    ______ ____
ROOT
ATOM      1  C   UNL     1      47.976  14.009  19.927  0.00  0.00    +0.202 C 
ATOM      2  C   UNL     1      46.816  14.499  20.754  0.00  0.00    +0.102 A 
ATOM      3  C   UNL     1      46.008  15.524  20.441  0.00  0.00    -0.254 A 
ATOM      4  C   UNL     1      45.025  15.622  21.557  0.00  0.00    -0.243 A 
ATOM      5  C   UNL     1      43.979  16.654  21.537  0.00  0.00    +0.469 C 
ATOM      6  C   UNL     1      44.098  17.711  20.503  0.00  0.00    -0.138 A 
ATOM      7  C   UNL     1      43.258  18.828  20.585  0.00  0.00    +0.165 A 
ATOM     10  C   UNL     1      43.344  19.837  19.633  0.00  0.00    -0.027 A 
ATOM     11  C   UNL     1      44.254  19.748  18.602  0.00  0.00    +0.064 A 
ATOM     12  C   UNL     1      45.097  18.646  18.501  0.00  0.00    +0.117 A 
ATOM     15  C   UNL     1      45.027  17.619  19.449  0.00  0.00    -0.104 A 
ATOM     16  O   UNL     1      43.058  16.642  22.332  0.00  0.00    -0.417 OA
ATOM     17  C   UNL     1      45.350  14.645  22.418  0.00  0.00    +0.297 A 
ATOM     18  C   UNL     1      45.941  16.459  19.310  0.00  0.00    +0.469 C 
ATOM     19  O   UNL     1      46.606  16.290  18.305  0.00  0.00    -0.415 OA
ATOM     20  O   UNL     1      46.416  13.983  21.931  0.00  0.00    -0.174 OA
ENDROOT
BRANCH   7   8
ATOM      8  O   UNL     1      42.359  18.925  21.596  0.00  0.00    -0.284 OA
ATOM      9  C   UNL     1      40.995  19.149  21.232  0.00  0.00    +0.247 C 
ENDBRANCH   7   8
BRANCH  12  13
ATOM     13  O   UNL     1      45.989  18.567  17.481  0.00  0.00    -0.473 OA
ATOM     14  H   UNL     1      46.014  17.704  17.045  0.00  0.00    +0.394 HD
ENDBRANCH  12  13
TORSDOF 2
ENDMDL
MODEL 8
REMARK VINA RESULT:      -5.0     20.715     22.722
REMARK  Name = ZINC14490613
REMARK  4 active torsions:
REMARK  status: ('A' for Active; 'I' for Inactive)
REMARK    1  A    between atoms: C1_1  and  C2_2
REMARK    2  A    between atoms: C8_10  and  O5_18
REMARK    3  A    between atoms: C11_13  and  O4_17
REMARK    4  A    between atoms: O5_18  and  C14_19
REMARK                            x       y       z     vdW  Elec       q    Type
REMARK                         _______ _______ _______ _____ _____    ______ ____
ROOT
ATOM      1  C   UNL     1      51.064  32.257  -0.354  0.00  0.00    +0.202 C 
ATOM      2  C   UNL     1      52.365  32.123   0.395  0.00  0.00    +0.102 A 
ATOM      3  C   UNL     1      52.535  32.315   1.712  0.00  0.00    -0.254 A 
ATOM      4  C   UNL     1      53.981  32.068   1.975  0.00  0.00    -0.243 A 
ATOM      5  C   UNL     1      54.520  32.194   3.337  0.00  0.00    +0.469 C 
ATOM      6  C   UNL     1      53.629  32.797   4.359  0.00  0.00    -0.138 A 
ATOM      7  C   UNL     1      54.171  33.139   5.604  0.00  0.00    +0.165 A 
ATOM     10  C   UNL     1      53.364  33.706   6.583  0.00  0.00    -0.027 A 
ATOM     11  C   UNL     1      52.028  33.936   6.339  0.00  0.00    +0.064 A 
ATOM     12  C   UNL     1      51.469  33.603   5.110  0.00  0.00    +0.117 A 
ATOM     15  C   UNL     1      52.263  33.031   4.110  0.00  0.00    -0.104 A 
ATOM     16  O   UNL     1      55.644  31.821   3.613  0.00  0.00    -0.417 OA
ATOM     17  C   UNL     1      54.521  31.753   0.788  0.00  0.00    +0.297 A 
ATOM     18  C   UNL     1      51.634  32.688   2.811  0.00  0.00    +0.469 C 
ATOM     19  O   UNL     1      50.427  32.715   2.662  0.00  0.00    -0.415 OA
ATOM     20  O   UNL     1      53.552  31.789  -0.145  0.00  0.00    -0.174 OA
ENDROOT
BRANCH   7   8
ATOM      8  O   UNL     1      55.486  32.915   5.854  0.00  0.00    -0.284 OA
ATOM      9  C   UNL     1      56.339  34.061   5.909  0.00  0.00    +0.247 C 
ENDBRANCH   7   8
BRANCH  12  13
ATOM     13  O   UNL     1      50.151  33.833   4.880  0.00  0.00    -0.473 OA
ATOM     14  H   UNL     1      49.558  33.337   5.462  0.00  0.00    +0.394 HD
ENDBRANCH  12  13
TORSDOF 2
ENDMDL
MODEL 9
REMARK VINA RESULT:      -4.9     20.675     22.944
REMARK  Name = ZINC14490613
REMARK  4 active torsions:
REMARK  status: ('A' for Active; 'I' for Inactive)
REMARK    1  A    between atoms: C1_1  and  C2_2
REMARK    2  A    between atoms: C8_10  and  O5_18
REMARK    3  A    between atoms: C11_13  and  O4_17
REMARK    4  A    between atoms: O5_18  and  C14_19
REMARK                            x       y       z     vdW  Elec       q    Type
REMARK                         _______ _______ _______ _____ _____    ______ ____
ROOT
ATOM      1  C   UNL     1      52.139  34.686   7.215  0.00  0.00    +0.202 C 
ATOM      2  C   UNL     1      52.155  33.962   5.893  0.00  0.00    +0.102 A 
ATOM      3  C   UNL     1      53.237  33.435   5.301  0.00  0.00    -0.254 A 
ATOM      4  C   UNL     1      52.751  32.831   4.028  0.00  0.00    -0.243 A 
ATOM      5  C   UNL     1      53.690  32.160   3.119  0.00  0.00    +0.469 C 
ATOM      6  C   UNL     1      55.136  32.320   3.407  0.00  0.00    -0.138 A 
ATOM      7  C   UNL     1      56.063  31.889   2.451  0.00  0.00    +0.165 A 
ATOM     10  C   UNL     1      57.425  32.026   2.688  0.00  0.00    -0.027 A 
ATOM     11  C   UNL     1      57.876  32.586   3.865  0.00  0.00    +0.064 A 
ATOM     12  C   UNL     1      56.972  33.020   4.829  0.00  0.00    +0.117 A 
ATOM     15  C   UNL     1      55.596  32.891   4.609  0.00  0.00    -0.104 A 
ATOM     16  O   UNL     1      53.298  31.501   2.173  0.00  0.00    -0.417 OA
ATOM     17  C   UNL     1      51.429  33.061   3.996  0.00  0.00    +0.297 A 
ATOM     18  C   UNL     1      54.661  33.365   5.659  0.00  0.00    +0.469 C 
ATOM     19  O   UNL     1      55.055  33.681   6.766  0.00  0.00    -0.415 OA
ATOM     20  O   UNL     1      51.084  33.734   5.109  0.00  0.00    -0.174 OA
ENDROOT
BRANCH   7   8
ATOM      8  O   UNL     1      55.630  31.336   1.289  0.00  0.00    -0.284 OA
ATOM      9  C   UNL     1      56.630  30.899   0.367  0.00  0.00    +0.247 C 
ENDBRANCH   7   8
BRANCH  12  13
ATOM     13  O   UNL     1      57.426  33.569   5.984  0.00  0.00    -0.473 OA
ATOM     14  H   UNL     1      57.549  32.931   6.701  0.00  0.00    +0.394 HD
ENDBRANCH  12  13
TORSDOF 2
ENDMDL
