MODEL 1
REMARK VINA RESULT:      -6.3      0.000      0.000
REMARK  Name = ZINC33829963
REMARK  9 active torsions:
REMARK  status: ('A' for Active; 'I' for Inactive)
REMARK    1  A    between atoms: C1_1  and  C2_2
REMARK    2  A    between atoms: C5_5  and  C29_33
REMARK    3  A    between atoms: C5_5  and  C30_34
REMARK    4  A    between atoms: C8_9  and  C28_32
REMARK    5  A    between atoms: C13_14  and  C16_17
REMARK    6  A    between atoms: C20_22  and  C27_31
REMARK    7  A    between atoms: C23_25  and  O1_30
REMARK    8  A    between atoms: C24_27  and  C25_28
REMARK    9  A    between atoms: C24_27  and  C26_29
REMARK                            x       y       z     vdW  Elec       q    Type
REMARK                         _______ _______ _______ _____ _____    ______ ____
ROOT
ATOM      1  C   UNL     1      48.607  21.125  20.734  0.00  0.00    +0.007 C 
ATOM      2  C   UNL     1      48.127  20.059  19.713  0.00  0.00    -0.035 C 
ATOM      3  C   UNL     1      47.106  20.730  18.796  0.00  0.00    +0.006 C 
ATOM      4  C   UNL     1      45.985  21.333  19.634  0.00  0.00    +0.020 C 
ATOM      5  C   UNL     1      45.270  20.278  20.464  0.00  0.00    -0.117 C 
ATOM      9  C   UNL     1      44.201  19.583  19.609  0.00  0.00    +0.010 C 
ATOM     10  C   UNL     1      46.172  19.269  21.133  0.00  0.00    +0.027 C 
ATOM     11  C   UNL     1      49.364  19.676  18.913  0.00  0.00    +0.003 C 
ATOM     12  C   UNL     1      49.277  18.314  18.243  0.00  0.00    +0.017 C 
ATOM     13  C   UNL     1      48.873  17.242  19.248  0.00  0.00    -0.005 C 
ATOM     14  C   UNL     1      49.921  17.190  20.359  0.00  0.00    +0.021 C 
ATOM     15  C   UNL     1      48.840  15.880  18.584  0.00  0.00    -0.095 C 
ATOM     16  C   UNL     1      49.814  15.684  17.447  0.00  0.00    +0.042 C 
ATOM     17  C   UNL     1      49.295  14.609  16.491  0.00  0.00    +0.028 C 
ATOM     18  C   UNL     1      49.060  13.335  17.310  0.00  0.00    +0.014 C 
ATOM     19  C   UNL     1      47.911  13.597  18.268  0.00  0.00    -0.003 C 
ATOM     20  C   UNL     1      47.854  12.518  19.358  0.00  0.00    +0.018 C 
ATOM     21  C   UNL     1      46.578  13.622  17.513  0.00  0.00    +0.028 C 
ATOM     22  C   UNL     1      46.370  12.334  16.726  0.00  0.00    -0.021 C 
ATOM     23  C   UNL     1      47.495  12.147  15.714  0.00  0.00    +0.165 C 
ATOM     26  C   UNL     1      48.859  12.138  16.397  0.00  0.00    -0.041 C 
ATOM     27  C   UNL     1      49.933  12.139  15.288  0.00  0.00    +0.024 C 
ATOM     28  C   UNL     1      49.047  10.812  17.146  0.00  0.00    +0.027 C 
ATOM     29  C   UNL     1      48.029  14.945  18.977  0.00  0.00    -0.106 C 
ATOM     30  C   UNL     1      47.092  15.120  20.149  0.00  0.00    +0.048 C 
ATOM     31  C   UNL     1      47.141  16.478  20.825  0.00  0.00    +0.008 C 
ATOM     32  C   UNL     1      47.499  17.575  19.818  0.00  0.00    -0.022 C 
ATOM     33  C   UNL     1      46.471  17.531  18.680  0.00  0.00    +0.020 C 
ATOM     34  C   UNL     1      47.507  18.930  20.504  0.00  0.00    -0.001 C 
ENDROOT
BRANCH   5   6
ATOM      6  C   UNL     1      44.518  21.019  21.569  0.00  0.00    +0.495 C 
ATOM      7  O   UNL     1      44.406  22.233  21.524  0.00  0.00    -0.696 OA
ATOM      8  O   UNL     1      44.029  20.397  22.497  0.00  0.00    -0.700 OA
ENDBRANCH   5   6
BRANCH  23  24
ATOM     24  O   UNL     1      47.446  13.186  14.732  0.00  0.00    -0.557 OA
ATOM     25  H   UNL     1      46.625  13.696  14.740  0.00  0.00    +0.372 HD
ENDBRANCH  23  24
TORSDOF 2
ENDMDL
MODEL 2
REMARK VINA RESULT:      -6.3      1.819      2.581
REMARK  Name = ZINC33829963
REMARK  9 active torsions:
REMARK  status: ('A' for Active; 'I' for Inactive)
REMARK    1  A    between atoms: C1_1  and  C2_2
REMARK    2  A    between atoms: C5_5  and  C29_33
REMARK    3  A    between atoms: C5_5  and  C30_34
REMARK    4  A    between atoms: C8_9  and  C28_32
REMARK    5  A    between atoms: C13_14  and  C16_17
REMARK    6  A    between atoms: C20_22  and  C27_31
REMARK    7  A    between atoms: C23_25  and  O1_30
REMARK    8  A    between atoms: C24_27  and  C25_28
REMARK    9  A    between atoms: C24_27  and  C26_29
REMARK                            x       y       z     vdW  Elec       q    Type
REMARK                         _______ _______ _______ _____ _____    ______ ____
ROOT
ATOM      1  C   UNL     1      51.958  20.092  19.912  0.00  0.00    +0.007 C 
ATOM      2  C   UNL     1      51.163  19.261  18.868  0.00  0.00    -0.035 C 
ATOM      3  C   UNL     1      50.385  20.246  17.997  0.00  0.00    +0.006 C 
ATOM      4  C   UNL     1      49.511  21.129  18.880  0.00  0.00    +0.020 C 
ATOM      5  C   UNL     1      48.519  20.311  19.691  0.00  0.00    -0.117 C 
ATOM      9  C   UNL     1      47.279  20.006  18.840  0.00  0.00    +0.010 C 
ATOM     10  C   UNL     1      49.078  19.050  20.307  0.00  0.00    +0.027 C 
ATOM     11  C   UNL     1      52.215  18.551  18.028  0.00  0.00    +0.003 C 
ATOM     12  C   UNL     1      51.710  17.306  17.317  0.00  0.00    +0.017 C 
ATOM     13  C   UNL     1      51.010  16.371  18.296  0.00  0.00    -0.005 C 
ATOM     14  C   UNL     1      52.006  15.961  19.381  0.00  0.00    +0.021 C 
ATOM     15  C   UNL     1      50.556  15.109  17.590  0.00  0.00    -0.095 C 
ATOM     16  C   UNL     1      51.410  14.669  16.425  0.00  0.00    +0.042 C 
ATOM     17  C   UNL     1      50.577  13.839  15.447  0.00  0.00    +0.028 C 
ATOM     18  C   UNL     1      49.974  12.668  16.230  0.00  0.00    +0.014 C 
ATOM     19  C   UNL     1      48.971  13.231  17.222  0.00  0.00    -0.003 C 
ATOM     20  C   UNL     1      48.602  12.179  18.277  0.00  0.00    +0.018 C 
ATOM     21  C   UNL     1      47.700  13.688  16.499  0.00  0.00    +0.028 C 
ATOM     22  C   UNL     1      47.101  12.555  15.676  0.00  0.00    -0.021 C 
ATOM     23  C   UNL     1      48.102  12.073  14.632  0.00  0.00    +0.165 C 
ATOM     26  C   UNL     1      49.407  11.624  15.284  0.00  0.00    -0.041 C 
ATOM     27  C   UNL     1      50.417  11.339  14.151  0.00  0.00    +0.024 C 
ATOM     28  C   UNL     1      49.191  10.277  15.985  0.00  0.00    +0.027 C 
ATOM     29  C   UNL     1      49.503  14.450  17.971  0.00  0.00    -0.106 C 
ATOM     30  C   UNL     1      48.679  14.858  19.169  0.00  0.00    +0.048 C 
ATOM     31  C   UNL     1      49.147  16.110  19.887  0.00  0.00    +0.008 C 
ATOM     32  C   UNL     1      49.811  17.084  18.908  0.00  0.00    -0.022 C 
ATOM     33  C   UNL     1      48.804  17.398  17.792  0.00  0.00    +0.020 C 
ATOM     34  C   UNL     1      50.239  18.346  19.637  0.00  0.00    -0.001 C 
ENDROOT
BRANCH   5   6
ATOM      6  C   UNL     1      48.042  21.203  20.837  0.00  0.00    +0.495 C 
ATOM      7  O   UNL     1      46.901  21.635  20.840  0.00  0.00    -0.696 OA
ATOM      8  O   UNL     1      48.801  21.485  21.748  0.00  0.00    -0.700 OA
ENDBRANCH   5   6
BRANCH  23  24
ATOM     24  O   UNL     1      48.361  13.113  13.686  0.00  0.00    -0.557 OA
ATOM     25  H   UNL     1      47.587  13.654  13.476  0.00  0.00    +0.372 HD
ENDBRANCH  23  24
TORSDOF 2
ENDMDL
MODEL 3
REMARK VINA RESULT:      -6.1      2.286      7.825
REMARK  Name = ZINC33829963
REMARK  9 active torsions:
REMARK  status: ('A' for Active; 'I' for Inactive)
REMARK    1  A    between atoms: C1_1  and  C2_2
REMARK    2  A    between atoms: C5_5  and  C29_33
REMARK    3  A    between atoms: C5_5  and  C30_34
REMARK    4  A    between atoms: C8_9  and  C28_32
REMARK    5  A    between atoms: C13_14  and  C16_17
REMARK    6  A    between atoms: C20_22  and  C27_31
REMARK    7  A    between atoms: C23_25  and  O1_30
REMARK    8  A    between atoms: C24_27  and  C25_28
REMARK    9  A    between atoms: C24_27  and  C26_29
REMARK                            x       y       z     vdW  Elec       q    Type
REMARK                         _______ _______ _______ _____ _____    ______ ____
ROOT
ATOM      1  C   UNL     1      49.495  14.070  17.551  0.00  0.00    +0.007 C 
ATOM      2  C   UNL     1      49.134  15.258  18.482  0.00  0.00    -0.035 C 
ATOM      3  C   UNL     1      50.125  15.247  19.645  0.00  0.00    +0.006 C 
ATOM      4  C   UNL     1      50.089  13.888  20.333  0.00  0.00    +0.020 C 
ATOM      5  C   UNL     1      48.704  13.566  20.874  0.00  0.00    -0.117 C 
ATOM      9  C   UNL     1      48.519  14.221  22.249  0.00  0.00    +0.010 C 
ATOM     10  C   UNL     1      47.559  13.907  19.950  0.00  0.00    +0.027 C 
ATOM     11  C   UNL     1      49.341  16.510  17.642  0.00  0.00    +0.003 C 
ATOM     12  C   UNL     1      48.569  17.725  18.131  0.00  0.00    +0.017 C 
ATOM     13  C   UNL     1      47.095  17.386  18.326  0.00  0.00    -0.005 C 
ATOM     14  C   UNL     1      46.516  16.926  16.989  0.00  0.00    +0.021 C 
ATOM     15  C   UNL     1      46.323  18.615  18.763  0.00  0.00    -0.095 C 
ATOM     16  C   UNL     1      46.852  19.934  18.253  0.00  0.00    +0.042 C 
ATOM     17  C   UNL     1      46.445  21.064  19.200  0.00  0.00    +0.028 C 
ATOM     18  C   UNL     1      44.918  21.035  19.327  0.00  0.00    +0.014 C 
ATOM     19  C   UNL     1      44.530  19.757  20.050  0.00  0.00    -0.003 C 
ATOM     20  C   UNL     1      43.029  19.478  19.893  0.00  0.00    +0.018 C 
ATOM     21  C   UNL     1      44.871  19.858  21.539  0.00  0.00    +0.028 C 
ATOM     22  C   UNL     1      44.216  21.080  22.169  0.00  0.00    -0.021 C 
ATOM     23  C   UNL     1      44.695  22.352  21.477  0.00  0.00    +0.165 C 
ATOM     26  C   UNL     1      44.408  22.307  19.980  0.00  0.00    -0.041 C 
ATOM     27  C   UNL     1      45.093  23.535  19.340  0.00  0.00    +0.024 C 
ATOM     28  C   UNL     1      42.906  22.508  19.741  0.00  0.00    +0.027 C 
ATOM     29  C   UNL     1      45.271  18.531  19.520  0.00  0.00    -0.106 C 
ATOM     30  C   UNL     1      44.708  17.209  19.986  0.00  0.00    +0.048 C 
ATOM     31  C   UNL     1      45.471  15.978  19.531  0.00  0.00    +0.008 C 
ATOM     32  C   UNL     1      46.964  16.290  19.376  0.00  0.00    -0.022 C 
ATOM     33  C   UNL     1      47.480  16.829  20.717  0.00  0.00    +0.020 C 
ATOM     34  C   UNL     1      47.716  15.039  18.957  0.00  0.00    -0.001 C 
ENDROOT
BRANCH   5   6
ATOM      6  C   UNL     1      48.662  12.056  21.112  0.00  0.00    +0.495 C 
ATOM      7  O   UNL     1      48.843  11.287  20.183  0.00  0.00    -0.696 OA
ATOM      8  O   UNL     1      48.446  11.620  22.230  0.00  0.00    -0.700 OA
ENDBRANCH   5   6
BRANCH  23  24
ATOM     24  O   UNL     1      46.095  22.533  21.703  0.00  0.00    -0.557 OA
ATOM     25  H   UNL     1      46.313  22.851  22.589  0.00  0.00    +0.372 HD
ENDBRANCH  23  24
TORSDOF 2
ENDMDL
MODEL 4
REMARK VINA RESULT:      -6.0      1.542      7.922
REMARK  Name = ZINC33829963
REMARK  9 active torsions:
REMARK  status: ('A' for Active; 'I' for Inactive)
REMARK    1  A    between atoms: C1_1  and  C2_2
REMARK    2  A    between atoms: C5_5  and  C29_33
REMARK    3  A    between atoms: C5_5  and  C30_34
REMARK    4  A    between atoms: C8_9  and  C28_32
REMARK    5  A    between atoms: C13_14  and  C16_17
REMARK    6  A    between atoms: C20_22  and  C27_31
REMARK    7  A    between atoms: C23_25  and  O1_30
REMARK    8  A    between atoms: C24_27  and  C25_28
REMARK    9  A    between atoms: C24_27  and  C26_29
REMARK                            x       y       z     vdW  Elec       q    Type
REMARK                         _______ _______ _______ _____ _____    ______ ____
ROOT
ATOM      1  C   UNL     1      50.281  12.725  17.380  0.00  0.00    +0.007 C 
ATOM      2  C   UNL     1      49.150  13.436  18.172  0.00  0.00    -0.035 C 
ATOM      3  C   UNL     1      48.282  12.350  18.805  0.00  0.00    +0.006 C 
ATOM      4  C   UNL     1      47.778  11.404  17.722  0.00  0.00    +0.020 C 
ATOM      5  C   UNL     1      46.953  12.133  16.673  0.00  0.00    -0.117 C 
ATOM      9  C   UNL     1      45.505  12.279  17.161  0.00  0.00    +0.010 C 
ATOM     10  C   UNL     1      47.513  13.463  16.227  0.00  0.00    +0.027 C 
ATOM     11  C   UNL     1      49.855  14.231  19.262  0.00  0.00    +0.003 C 
ATOM     12  C   UNL     1      49.044  15.394  19.810  0.00  0.00    +0.017 C 
ATOM     13  C   UNL     1      48.531  16.277  18.678  0.00  0.00    -0.005 C 
ATOM     14  C   UNL     1      49.728  16.821  17.899  0.00  0.00    +0.021 C 
ATOM     15  C   UNL     1      47.769  17.462  19.235  0.00  0.00    -0.095 C 
ATOM     16  C   UNL     1      48.228  17.958  20.585  0.00  0.00    +0.042 C 
ATOM     17  C   UNL     1      47.077  18.666  21.303  0.00  0.00    +0.028 C 
ATOM     18  C   UNL     1      46.579  19.788  20.386  0.00  0.00    +0.014 C 
ATOM     19  C   UNL     1      45.945  19.149  19.163  0.00  0.00    -0.003 C 
ATOM     20  C   UNL     1      45.756  20.184  18.045  0.00  0.00    +0.018 C 
ATOM     21  C   UNL     1      44.586  18.538  19.520  0.00  0.00    +0.028 C 
ATOM     22  C   UNL     1      43.668  19.577  20.150  0.00  0.00    -0.021 C 
ATOM     23  C   UNL     1      44.296  20.133  21.423  0.00  0.00    +0.165 C 
ATOM     26  C   UNL     1      45.669  20.738  21.144  0.00  0.00    -0.041 C 
ATOM     27  C   UNL     1      46.303  21.097  22.505  0.00  0.00    +0.024 C 
ATOM     28  C   UNL     1      45.499  22.073  20.408  0.00  0.00    +0.027 C 
ATOM     29  C   UNL     1      46.789  18.014  18.585  0.00  0.00    -0.106 C 
ATOM     30  C   UNL     1      46.363  17.555  17.211  0.00  0.00    +0.048 C 
ATOM     31  C   UNL     1      47.142  16.381  16.646  0.00  0.00    +0.008 C 
ATOM     32  C   UNL     1      47.624  15.456  17.769  0.00  0.00    -0.022 C 
ATOM     33  C   UNL     1      46.399  15.005  18.574  0.00  0.00    +0.020 C 
ATOM     34  C   UNL     1      48.368  14.269  17.183  0.00  0.00    -0.001 C 
ENDROOT
BRANCH   5   6
ATOM      6  C   UNL     1      46.900  11.227  15.443  0.00  0.00    +0.495 C 
ATOM      7  O   UNL     1      45.852  10.689  15.126  0.00  0.00    -0.696 OA
ATOM      8  O   UNL     1      47.905  11.042  14.778  0.00  0.00    -0.700 OA
ENDBRANCH   5   6
BRANCH  23  24
ATOM     24  O   UNL     1      44.406  19.101  22.406  0.00  0.00    -0.557 OA
ATOM     25  H   UNL     1      45.316  18.832  22.593  0.00  0.00    +0.372 HD
ENDBRANCH  23  24
TORSDOF 2
ENDMDL
MODEL 5
REMARK VINA RESULT:      -6.0      3.031      7.210
REMARK  Name = ZINC33829963
REMARK  9 active torsions:
REMARK  status: ('A' for Active; 'I' for Inactive)
REMARK    1  A    between atoms: C1_1  and  C2_2
REMARK    2  A    between atoms: C5_5  and  C29_33
REMARK    3  A    between atoms: C5_5  and  C30_34
REMARK    4  A    between atoms: C8_9  and  C28_32
REMARK    5  A    between atoms: C13_14  and  C16_17
REMARK    6  A    between atoms: C20_22  and  C27_31
REMARK    7  A    between atoms: C23_25  and  O1_30
REMARK    8  A    between atoms: C24_27  and  C25_28
REMARK    9  A    between atoms: C24_27  and  C26_29
REMARK                            x       y       z     vdW  Elec       q    Type
REMARK                         _______ _______ _______ _____ _____    ______ ____
ROOT
ATOM      1  C   UNL     1      51.846  15.705  17.485  0.00  0.00    +0.007 C 
ATOM      2  C   UNL     1      50.932  16.849  18.003  0.00  0.00    -0.035 C 
ATOM      3  C   UNL     1      51.804  18.093  18.168  0.00  0.00    +0.006 C 
ATOM      4  C   UNL     1      52.978  17.775  19.087  0.00  0.00    +0.020 C 
ATOM      5  C   UNL     1      52.513  17.323  20.463  0.00  0.00    -0.117 C 
ATOM      9  C   UNL     1      52.213  18.548  21.337  0.00  0.00    +0.010 C 
ATOM     10  C   UNL     1      51.350  16.359  20.462  0.00  0.00    +0.027 C 
ATOM     11  C   UNL     1      49.908  17.081  16.901  0.00  0.00    +0.003 C 
ATOM     12  C   UNL     1      48.625  17.747  17.371  0.00  0.00    +0.017 C 
ATOM     13  C   UNL     1      48.041  17.009  18.570  0.00  0.00    -0.005 C 
ATOM     14  C   UNL     1      47.738  15.569  18.160  0.00  0.00    +0.021 C 
ATOM     15  C   UNL     1      46.736  17.648  19.000  0.00  0.00    -0.095 C 
ATOM     16  C   UNL     1      45.929  18.293  17.898  0.00  0.00    +0.042 C 
ATOM     17  C   UNL     1      45.037  19.393  18.474  0.00  0.00    +0.028 C 
ATOM     18  C   UNL     1      44.167  18.759  19.565  0.00  0.00    +0.014 C 
ATOM     19  C   UNL     1      45.075  18.348  20.711  0.00  0.00    -0.003 C 
ATOM     20  C   UNL     1      44.347  17.391  21.665  0.00  0.00    +0.018 C 
ATOM     21  C   UNL     1      45.543  19.580  21.492  0.00  0.00    +0.028 C 
ATOM     22  C   UNL     1      44.357  20.401  21.982  0.00  0.00    -0.021 C 
ATOM     23  C   UNL     1      43.517  20.871  20.800  0.00  0.00    +0.165 C 
ATOM     26  C   UNL     1      43.036  19.691  19.960  0.00  0.00    -0.041 C 
ATOM     27  C   UNL     1      42.364  20.267  18.695  0.00  0.00    +0.024 C 
ATOM     28  C   UNL     1      41.922  18.950  20.711  0.00  0.00    +0.027 C 
ATOM     29  C   UNL     1      46.338  17.633  20.237  0.00  0.00    -0.106 C 
ATOM     30  C   UNL     1      47.115  16.942  21.332  0.00  0.00    +0.048 C 
ATOM     31  C   UNL     1      48.412  16.285  20.896  0.00  0.00    +0.008 C 
ATOM     32  C   UNL     1      49.039  17.044  19.721  0.00  0.00    -0.022 C 
ATOM     33  C   UNL     1      49.244  18.502  20.151  0.00  0.00    +0.020 C 
ATOM     34  C   UNL     1      50.353  16.395  19.323  0.00  0.00    -0.001 C 
ENDROOT
BRANCH   5   6
ATOM      6  C   UNL     1      53.695  16.609  21.118  0.00  0.00    +0.495 C 
ATOM      7  O   UNL     1      54.123  16.997  22.192  0.00  0.00    -0.696 OA
ATOM      8  O   UNL     1      54.211  15.652  20.566  0.00  0.00    -0.700 OA
ENDBRANCH   5   6
BRANCH  23  24
ATOM     24  O   UNL     1      44.274  21.772  19.989  0.00  0.00    -0.557 OA
ATOM     25  H   UNL     1      43.998  22.696  20.065  0.00  0.00    +0.372 HD
ENDBRANCH  23  24
TORSDOF 2
ENDMDL
MODEL 6
REMARK VINA RESULT:      -5.9      2.997      8.713
REMARK  Name = ZINC33829963
REMARK  9 active torsions:
REMARK  status: ('A' for Active; 'I' for Inactive)
REMARK    1  A    between atoms: C1_1  and  C2_2
REMARK    2  A    between atoms: C5_5  and  C29_33
REMARK    3  A    between atoms: C5_5  and  C30_34
REMARK    4  A    between atoms: C8_9  and  C28_32
REMARK    5  A    between atoms: C13_14  and  C16_17
REMARK    6  A    between atoms: C20_22  and  C27_31
REMARK    7  A    between atoms: C23_25  and  O1_30
REMARK    8  A    between atoms: C24_27  and  C25_28
REMARK    9  A    between atoms: C24_27  and  C26_29
REMARK                            x       y       z     vdW  Elec       q    Type
REMARK                         _______ _______ _______ _____ _____    ______ ____
ROOT
ATOM      1  C   UNL     1      48.440  11.195  16.825  0.00  0.00    +0.007 C 
ATOM      2  C   UNL     1      48.832  12.686  16.633  0.00  0.00    -0.035 C 
ATOM      3  C   UNL     1      48.807  12.976  15.132  0.00  0.00    +0.006 C 
ATOM      4  C   UNL     1      49.723  11.997  14.408  0.00  0.00    +0.020 C 
ATOM      5  C   UNL     1      51.159  12.099  14.897  0.00  0.00    -0.117 C 
ATOM      9  C   UNL     1      51.875  13.245  14.168  0.00  0.00    +0.010 C 
ATOM     10  C   UNL     1      51.320  12.223  16.394  0.00  0.00    +0.027 C 
ATOM     11  C   UNL     1      47.740  13.486  17.329  0.00  0.00    +0.003 C 
ATOM     12  C   UNL     1      48.158  14.890  17.735  0.00  0.00    +0.017 C 
ATOM     13  C   UNL     1      49.460  14.859  18.527  0.00  0.00    -0.005 C 
ATOM     14  C   UNL     1      49.251  14.014  19.783  0.00  0.00    +0.021 C 
ATOM     15  C   UNL     1      49.841  16.256  18.972  0.00  0.00    -0.095 C 
ATOM     16  C   UNL     1      48.689  17.198  19.228  0.00  0.00    +0.042 C 
ATOM     17  C   UNL     1      49.144  18.647  19.044  0.00  0.00    +0.028 C 
ATOM     18  C   UNL     1      50.334  18.881  19.981  0.00  0.00    +0.014 C 
ATOM     19  C   UNL     1      51.496  18.038  19.485  0.00  0.00    -0.003 C 
ATOM     20  C   UNL     1      52.589  17.934  20.558  0.00  0.00    +0.018 C 
ATOM     21  C   UNL     1      52.095  18.646  18.213  0.00  0.00    +0.028 C 
ATOM     22  C   UNL     1      52.509  20.094  18.440  0.00  0.00    -0.021 C 
ATOM     23  C   UNL     1      51.302  20.930  18.851  0.00  0.00    +0.165 C 
ATOM     26  C   UNL     1      50.638  20.364  20.103  0.00  0.00    -0.041 C 
ATOM     27  C   UNL     1      49.329  21.151  20.329  0.00  0.00    +0.024 C 
ATOM     28  C   UNL     1      51.513  20.667  21.327  0.00  0.00    +0.027 C 
ATOM     29  C   UNL     1      51.081  16.612  19.128  0.00  0.00    -0.106 C 
ATOM     30  C   UNL     1      52.233  15.658  18.924  0.00  0.00    +0.048 C 
ATOM     31  C   UNL     1      51.848  14.253  18.498  0.00  0.00    +0.008 C 
ATOM     32  C   UNL     1      50.566  14.270  17.659  0.00  0.00    -0.022 C 
ATOM     33  C   UNL     1      50.795  15.198  16.458  0.00  0.00    +0.020 C 
ATOM     34  C   UNL     1      50.217  12.862  17.211  0.00  0.00    -0.001 C 
ENDROOT
BRANCH   5   6
ATOM      6  C   UNL     1      51.866  10.813  14.469  0.00  0.00    +0.495 C 
ATOM      7  O   UNL     1      51.572  10.277  13.414  0.00  0.00    -0.696 OA
ATOM      8  O   UNL     1      52.724  10.322  15.183  0.00  0.00    -0.700 OA
ENDBRANCH   5   6
BRANCH  23  24
ATOM     24  O   UNL     1      50.357  20.985  17.779  0.00  0.00    -0.557 OA
ATOM     25  H   UNL     1      50.675  21.460  16.999  0.00  0.00    +0.372 HD
ENDBRANCH  23  24
TORSDOF 2
ENDMDL
MODEL 7
REMARK VINA RESULT:      -5.9      3.007      8.244
REMARK  Name = ZINC33829963
REMARK  9 active torsions:
REMARK  status: ('A' for Active; 'I' for Inactive)
REMARK    1  A    between atoms: C1_1  and  C2_2
REMARK    2  A    between atoms: C5_5  and  C29_33
REMARK    3  A    between atoms: C5_5  and  C30_34
REMARK    4  A    between atoms: C8_9  and  C28_32
REMARK    5  A    between atoms: C13_14  and  C16_17
REMARK    6  A    between atoms: C20_22  and  C27_31
REMARK    7  A    between atoms: C23_25  and  O1_30
REMARK    8  A    between atoms: C24_27  and  C25_28
REMARK    9  A    between atoms: C24_27  and  C26_29
REMARK                            x       y       z     vdW  Elec       q    Type
REMARK                         _______ _______ _______ _____ _____    ______ ____
ROOT
ATOM      1  C   UNL     1      50.442  10.935  18.468  0.00  0.00    +0.007 C 
ATOM      2  C   UNL     1      49.924  12.374  18.740  0.00  0.00    -0.035 C 
ATOM      3  C   UNL     1      48.400  12.302  18.828  0.00  0.00    +0.006 C 
ATOM      4  C   UNL     1      47.845  11.674  17.555  0.00  0.00    +0.020 C 
ATOM      5  C   UNL     1      48.221  12.475  16.319  0.00  0.00    -0.117 C 
ATOM      9  C   UNL     1      47.233  13.634  16.130  0.00  0.00    +0.010 C 
ATOM     10  C   UNL     1      49.649  12.968  16.284  0.00  0.00    +0.027 C 
ATOM     11  C   UNL     1      50.499  12.764  20.094  0.00  0.00    +0.003 C 
ATOM     12  C   UNL     1      50.582  14.264  20.328  0.00  0.00    +0.017 C 
ATOM     13  C   UNL     1      51.290  14.954  19.168  0.00  0.00    -0.005 C 
ATOM     14  C   UNL     1      52.703  14.386  19.047  0.00  0.00    +0.021 C 
ATOM     15  C   UNL     1      51.414  16.441  19.434  0.00  0.00    -0.095 C 
ATOM     16  C   UNL     1      51.533  16.838  20.886  0.00  0.00    +0.042 C 
ATOM     17  C   UNL     1      51.028  18.268  21.083  0.00  0.00    +0.028 C 
ATOM     18  C   UNL     1      51.828  19.175  20.142  0.00  0.00    +0.014 C 
ATOM     19  C   UNL     1      51.454  18.819  18.714  0.00  0.00    -0.003 C 
ATOM     20  C   UNL     1      52.464  19.415  17.723  0.00  0.00    +0.018 C 
ATOM     21  C   UNL     1      50.053  19.339  18.381  0.00  0.00    +0.028 C 
ATOM     22  C   UNL     1      49.952  20.839  18.631  0.00  0.00    -0.021 C 
ATOM     23  C   UNL     1      50.247  21.151  20.093  0.00  0.00    +0.165 C 
ATOM     26  C   UNL     1      51.624  20.636  20.501  0.00  0.00    -0.041 C 
ATOM     27  C   UNL     1      51.755  20.824  22.028  0.00  0.00    +0.024 C 
ATOM     28  C   UNL     1      52.708  21.531  19.887  0.00  0.00    +0.027 C 
ATOM     29  C   UNL     1      51.423  17.312  18.470  0.00  0.00    -0.106 C 
ATOM     30  C   UNL     1      51.359  16.914  17.015  0.00  0.00    +0.048 C 
ATOM     31  C   UNL     1      51.255  15.423  16.750  0.00  0.00    +0.008 C 
ATOM     32  C   UNL     1      50.503  14.720  17.884  0.00  0.00    -0.022 C 
ATOM     33  C   UNL     1      49.125  15.381  18.025  0.00  0.00    +0.020 C 
ATOM     34  C   UNL     1      50.376  13.237  17.585  0.00  0.00    -0.001 C 
ENDROOT
BRANCH   5   6
ATOM      6  C   UNL     1      48.031  11.550  15.117  0.00  0.00    +0.495 C 
ATOM      7  O   UNL     1      46.922  11.401  14.630  0.00  0.00    -0.696 OA
ATOM      8  O   UNL     1      48.987  10.960  14.643  0.00  0.00    -0.700 OA
ENDBRANCH   5   6
BRANCH  23  24
ATOM     24  O   UNL     1      49.241  20.575  20.929  0.00  0.00    -0.557 OA
ATOM     25  H   UNL     1      49.547  19.817  21.446  0.00  0.00    +0.372 HD
ENDBRANCH  23  24
TORSDOF 2
ENDMDL
MODEL 8
REMARK VINA RESULT:      -5.8      1.371      8.020
REMARK  Name = ZINC33829963
REMARK  9 active torsions:
REMARK  status: ('A' for Active; 'I' for Inactive)
REMARK    1  A    between atoms: C1_1  and  C2_2
REMARK    2  A    between atoms: C5_5  and  C29_33
REMARK    3  A    between atoms: C5_5  and  C30_34
REMARK    4  A    between atoms: C8_9  and  C28_32
REMARK    5  A    between atoms: C13_14  and  C16_17
REMARK    6  A    between atoms: C20_22  and  C27_31
REMARK    7  A    between atoms: C23_25  and  O1_30
REMARK    8  A    between atoms: C24_27  and  C25_28
REMARK    9  A    between atoms: C24_27  and  C26_29
REMARK                            x       y       z     vdW  Elec       q    Type
REMARK                         _______ _______ _______ _____ _____    ______ ____
ROOT
ATOM      1  C   UNL     1      49.241  11.917  19.608  0.00  0.00    +0.007 C 
ATOM      2  C   UNL     1      48.251  13.097  19.407  0.00  0.00    -0.035 C 
ATOM      3  C   UNL     1      47.086  12.578  18.566  0.00  0.00    +0.006 C 
ATOM      4  C   UNL     1      47.619  11.988  17.265  0.00  0.00    +0.020 C 
ATOM      5  C   UNL     1      48.384  13.018  16.449  0.00  0.00    -0.117 C 
ATOM      9  C   UNL     1      47.402  13.856  15.619  0.00  0.00    +0.010 C 
ATOM     10  C   UNL     1      49.316  13.902  17.244  0.00  0.00    +0.027 C 
ATOM     11  C   UNL     1      47.758  13.456  20.801  0.00  0.00    +0.003 C 
ATOM     12  C   UNL     1      47.219  14.872  20.927  0.00  0.00    +0.017 C 
ATOM     13  C   UNL     1      48.219  15.882  20.379  0.00  0.00    -0.005 C 
ATOM     14  C   UNL     1      49.519  15.768  21.175  0.00  0.00    +0.021 C 
ATOM     15  C   UNL     1      47.696  17.294  20.556  0.00  0.00    -0.095 C 
ATOM     16  C   UNL     1      46.804  17.515  21.754  0.00  0.00    +0.042 C 
ATOM     17  C   UNL     1      45.870  18.700  21.502  0.00  0.00    +0.028 C 
ATOM     18  C   UNL     1      46.743  19.914  21.168  0.00  0.00    +0.014 C 
ATOM     19  C   UNL     1      47.419  19.655  19.832  0.00  0.00    -0.003 C 
ATOM     20  C   UNL     1      48.574  20.642  19.607  0.00  0.00    +0.018 C 
ATOM     21  C   UNL     1      46.412  19.787  18.686  0.00  0.00    +0.028 C 
ATOM     22  C   UNL     1      45.726  21.148  18.714  0.00  0.00    -0.021 C 
ATOM     23  C   UNL     1      44.985  21.338  20.033  0.00  0.00    +0.165 C 
ATOM     26  C   UNL     1      45.928  21.194  21.223  0.00  0.00    -0.041 C 
ATOM     27  C   UNL     1      45.064  21.210  22.503  0.00  0.00    +0.024 C 
ATOM     28  C   UNL     1      46.823  22.436  21.320  0.00  0.00    +0.027 C 
ATOM     29  C   UNL     1      48.005  18.248  19.731  0.00  0.00    -0.106 C 
ATOM     30  C   UNL     1      48.941  18.043  18.563  0.00  0.00    +0.048 C 
ATOM     31  C   UNL     1      49.480  16.633  18.399  0.00  0.00    +0.008 C 
ATOM     32  C   UNL     1      48.465  15.601  18.902  0.00  0.00    -0.022 C 
ATOM     33  C   UNL     1      47.152  15.812  18.136  0.00  0.00    +0.020 C 
ATOM     34  C   UNL     1      49.005  14.197  18.696  0.00  0.00    -0.001 C 
ENDROOT
BRANCH   5   6
ATOM      6  C   UNL     1      49.238  12.242  15.446  0.00  0.00    +0.495 C 
ATOM      7  O   UNL     1      50.432  12.474  15.354  0.00  0.00    -0.696 OA
ATOM      8  O   UNL     1      48.726  11.393  14.737  0.00  0.00    -0.700 OA
ENDBRANCH   5   6
BRANCH  23  24
ATOM     24  O   UNL     1      43.919  20.392  20.135  0.00  0.00    -0.557 OA
ATOM     25  H   UNL     1      44.002  19.639  19.533  0.00  0.00    +0.372 HD
ENDBRANCH  23  24
TORSDOF 2
ENDMDL
MODEL 9
REMARK VINA RESULT:      -5.7      1.912      2.960
REMARK  Name = ZINC33829963
REMARK  9 active torsions:
REMARK  status: ('A' for Active; 'I' for Inactive)
REMARK    1  A    between atoms: C1_1  and  C2_2
REMARK    2  A    between atoms: C5_5  and  C29_33
REMARK    3  A    between atoms: C5_5  and  C30_34
REMARK    4  A    between atoms: C8_9  and  C28_32
REMARK    5  A    between atoms: C13_14  and  C16_17
REMARK    6  A    between atoms: C20_22  and  C27_31
REMARK    7  A    between atoms: C23_25  and  O1_30
REMARK    8  A    between atoms: C24_27  and  C25_28
REMARK    9  A    between atoms: C24_27  and  C26_29
REMARK                            x       y       z     vdW  Elec       q    Type
REMARK                         _______ _______ _______ _____ _____    ______ ____
ROOT
ATOM      1  C   UNL     1      44.498  21.278  22.105  0.00  0.00    +0.007 C 
ATOM      2  C   UNL     1      45.136  20.461  20.949  0.00  0.00    -0.035 C 
ATOM      3  C   UNL     1      44.908  21.242  19.656  0.00  0.00    +0.006 C 
ATOM      4  C   UNL     1      43.419  21.509  19.476  0.00  0.00    +0.020 C 
ATOM      5  C   UNL     1      42.618  20.218  19.409  0.00  0.00    -0.117 C 
ATOM      9  C   UNL     1      42.648  19.661  17.980  0.00  0.00    +0.010 C 
ATOM     10  C   UNL     1      43.018  19.162  20.413  0.00  0.00    +0.027 C 
ATOM     11  C   UNL     1      46.625  20.408  21.262  0.00  0.00    +0.003 C 
ATOM     12  C   UNL     1      47.361  19.255  20.600  0.00  0.00    +0.017 C 
ATOM     13  C   UNL     1      46.656  17.933  20.876  0.00  0.00    -0.005 C 
ATOM     14  C   UNL     1      46.617  17.703  22.386  0.00  0.00    +0.021 C 
ATOM     15  C   UNL     1      47.425  16.783  20.256  0.00  0.00    -0.095 C 
ATOM     16  C   UNL     1      48.921  16.969  20.170  0.00  0.00    +0.042 C 
ATOM     17  C   UNL     1      49.490  16.124  19.029  0.00  0.00    +0.028 C 
ATOM     18  C   UNL     1      49.077  14.670  19.280  0.00  0.00    +0.014 C 
ATOM     19  C   UNL     1      47.569  14.575  19.125  0.00  0.00    -0.003 C 
ATOM     20  C   UNL     1      47.044  13.257  19.711  0.00  0.00    +0.018 C 
ATOM     21  C   UNL     1      47.175  14.663  17.647  0.00  0.00    +0.028 C 
ATOM     22  C   UNL     1      47.891  13.599  16.825  0.00  0.00    -0.021 C 
ATOM     23  C   UNL     1      49.402  13.778  16.933  0.00  0.00    +0.165 C 
ATOM     26  C   UNL     1      49.862  13.726  18.387  0.00  0.00    -0.041 C 
ATOM     27  C   UNL     1      51.359  14.104  18.412  0.00  0.00    +0.024 C 
ATOM     28  C   UNL     1      49.799  12.278  18.892  0.00  0.00    +0.027 C 
ATOM     29  C   UNL     1      46.830  15.707  19.836  0.00  0.00    -0.106 C 
ATOM     30  C   UNL     1      45.341  15.496  19.971  0.00  0.00    +0.048 C 
ATOM     31  C   UNL     1      44.575  16.640  20.610  0.00  0.00    +0.008 C 
ATOM     32  C   UNL     1      45.245  17.983  20.302  0.00  0.00    -0.022 C 
ATOM     33  C   UNL     1      45.340  18.129  18.777  0.00  0.00    +0.020 C 
ATOM     34  C   UNL     1      44.445  19.118  20.917  0.00  0.00    -0.001 C 
ENDROOT
BRANCH   5   6
ATOM      6  C   UNL     1      41.161  20.585  19.694  0.00  0.00    +0.495 C 
ATOM      7  O   UNL     1      40.530  19.970  20.537  0.00  0.00    -0.696 OA
ATOM      8  O   UNL     1      40.630  21.493  19.078  0.00  0.00    -0.700 OA
ENDBRANCH   5   6
BRANCH  23  24
ATOM     24  O   UNL     1      49.791  15.019  16.340  0.00  0.00    -0.557 OA
ATOM     25  H   UNL     1      49.061  15.641  16.216  0.00  0.00    +0.372 HD
ENDBRANCH  23  24
TORSDOF 2
ENDMDL
