MODEL 1
REMARK VINA RESULT:      -5.6      0.000      0.000
REMARK  Name = ZINC95486054
REMARK  9 active torsions:
REMARK  status: ('A' for Active; 'I' for Inactive)
REMARK    1  A    between atoms: C1_1  and  C2_2
REMARK    2  A    between atoms: C2_2  and  C23_30
REMARK    3  A    between atoms: C12_13  and  C14_17
REMARK    4  A    between atoms: C16_19  and  O5_27
REMARK    5  A    between atoms: C17_20  and  O4_25
REMARK    6  A    between atoms: C19_22  and  O3_23
REMARK    7  A    between atoms: O3_23  and  C20_24
REMARK    8  A    between atoms: O4_25  and  C21_26
REMARK    9  A    between atoms: O5_27  and  C22_28
REMARK                            x       y       z     vdW  Elec       q    Type
REMARK                         _______ _______ _______ _____ _____    ______ ____
ROOT
ATOM      1  C   UNL     1      46.800  14.929  16.755  0.00  0.00    +0.033 C 
ATOM      2  C   UNL     1      47.917  15.574  17.577  0.00  0.00    +0.110 C 
ATOM      3  C   UNL     1      49.225  14.809  17.360  0.00  0.00    +0.078 C 
ATOM      4  C   UNL     1      48.096  17.036  17.149  0.00  0.00    +0.019 C 
ATOM      5  C   UNL     1      46.743  17.741  17.275  0.00  0.00    +0.099 C 
ATOM      6  C   UNL     1      46.132  17.431  18.618  0.00  0.00    -0.208 A 
ATOM      7  C   UNL     1      46.567  16.362  19.381  0.00  0.00    +0.207 A 
ATOM      8  C   UNL     1      45.977  16.095  20.619  0.00  0.00    -0.049 A 
ATOM      9  C   UNL     1      44.970  16.884  21.093  0.00  0.00    +0.150 A 
ATOM     10  C   UNL     1      44.524  17.970  20.334  0.00  0.00    -0.282 A 
ATOM     11  C   UNL     1      43.438  18.833  20.821  0.00  0.00    +0.413 C 
ATOM     12  O   UNL     1      42.752  18.521  21.771  0.00  0.00    -0.438 OA
ATOM     13  C   UNL     1      43.219  20.134  20.070  0.00  0.00    +0.015 C 
ATOM     26  C   UNL     1      43.394  19.831  18.575  0.00  0.00    +0.281 C 
ATOM     27  O   UNL     1      44.701  19.304  18.348  0.00  0.00    -0.301 OA
ATOM     28  C   UNL     1      45.113  18.248  19.088  0.00  0.00    +0.207 A 
ATOM     29  O   UNL     1      47.571  15.550  18.962  0.00  0.00    -0.297 OA
ENDROOT
BRANCH  13  14
ATOM     14  C   UNL     1      44.236  21.158  20.509  0.00  0.00    -0.114 A 
ATOM     15  C   UNL     1      45.336  20.765  21.249  0.00  0.00    +0.029 A 
ATOM     16  C   UNL     1      46.271  21.704  21.653  0.00  0.00    +0.067 A 
ATOM     19  C   UNL     1      46.103  23.043  21.313  0.00  0.00    +0.148 A 
ATOM     22  C   UNL     1      45.000  23.434  20.572  0.00  0.00    -0.118 A 
ATOM     23  C   UNL     1      44.069  22.491  20.164  0.00  0.00    +0.149 A 
BRANCH  16  17
ATOM     17  O   UNL     1      47.352  21.316  22.382  0.00  0.00    -0.303 OA
ATOM     18  C   UNL     1      47.649  19.919  22.411  0.00  0.00    +0.235 C 
ENDBRANCH  16  17
BRANCH  19  20
ATOM     20  O   UNL     1      47.019  23.966  21.710  0.00  0.00    -0.300 OA
ATOM     21  C   UNL     1      46.718  25.336  21.439  0.00  0.00    +0.240 C 
ENDBRANCH  19  20
BRANCH  23  24
ATOM     24  O   UNL     1      42.989  22.873  19.432  0.00  0.00    -0.310 OA
ATOM     25  C   UNL     1      43.092  24.109  18.723  0.00  0.00    +0.242 C 
ENDBRANCH  23  24
ENDBRANCH  13  14
TORSDOF 4
ENDMDL
MODEL 2
REMARK VINA RESULT:      -5.5      3.006      5.778
REMARK  Name = ZINC95486054
REMARK  9 active torsions:
REMARK  status: ('A' for Active; 'I' for Inactive)
REMARK    1  A    between atoms: C1_1  and  C2_2
REMARK    2  A    between atoms: C2_2  and  C23_30
REMARK    3  A    between atoms: C12_13  and  C14_17
REMARK    4  A    between atoms: C16_19  and  O5_27
REMARK    5  A    between atoms: C17_20  and  O4_25
REMARK    6  A    between atoms: C19_22  and  O3_23
REMARK    7  A    between atoms: O3_23  and  C20_24
REMARK    8  A    between atoms: O4_25  and  C21_26
REMARK    9  A    between atoms: O5_27  and  C22_28
REMARK                            x       y       z     vdW  Elec       q    Type
REMARK                         _______ _______ _______ _____ _____    ______ ____
ROOT
ATOM      1  C   UNL     1      52.751  19.786  18.252  0.00  0.00    +0.033 C 
ATOM      2  C   UNL     1      51.991  20.562  19.330  0.00  0.00    +0.110 C 
ATOM      3  C   UNL     1      52.869  21.697  19.863  0.00  0.00    +0.078 C 
ATOM      4  C   UNL     1      50.700  21.141  18.737  0.00  0.00    +0.019 C 
ATOM      5  C   UNL     1      49.901  19.993  18.116  0.00  0.00    +0.099 C 
ATOM      6  C   UNL     1      49.819  18.845  19.090  0.00  0.00    -0.208 A 
ATOM      7  C   UNL     1      50.686  18.746  20.165  0.00  0.00    +0.207 A 
ATOM      8  C   UNL     1      50.591  17.667  21.047  0.00  0.00    -0.049 A 
ATOM      9  C   UNL     1      49.645  16.702  20.865  0.00  0.00    +0.150 A 
ATOM     10  C   UNL     1      48.761  16.792  19.786  0.00  0.00    -0.282 A 
ATOM     11  C   UNL     1      47.734  15.763  19.566  0.00  0.00    +0.413 C 
ATOM     12  O   UNL     1      47.750  14.707  20.163  0.00  0.00    -0.438 OA
ATOM     13  C   UNL     1      46.655  16.090  18.550  0.00  0.00    +0.015 C 
ATOM     26  C   UNL     1      47.338  16.805  17.375  0.00  0.00    +0.281 C 
ATOM     27  O   UNL     1      47.988  17.983  17.852  0.00  0.00    -0.301 OA
ATOM     28  C   UNL     1      48.846  17.875  18.893  0.00  0.00    +0.207 A 
ATOM     29  O   UNL     1      51.640  19.682  20.399  0.00  0.00    -0.297 OA
ENDROOT
BRANCH  13  14
ATOM     14  C   UNL     1      45.621  16.994  19.171  0.00  0.00    -0.114 A 
ATOM     15  C   UNL     1      45.436  18.272  18.676  0.00  0.00    +0.029 A 
ATOM     16  C   UNL     1      44.486  19.105  19.245  0.00  0.00    +0.067 A 
ATOM     19  C   UNL     1      43.718  18.654  20.314  0.00  0.00    +0.148 A 
ATOM     22  C   UNL     1      43.905  17.373  20.808  0.00  0.00    -0.118 A 
ATOM     23  C   UNL     1      44.852  16.541  20.232  0.00  0.00    +0.149 A 
BRANCH  16  17
ATOM     17  O   UNL     1      44.306  20.362  18.758  0.00  0.00    -0.303 OA
ATOM     18  C   UNL     1      45.297  21.337  19.092  0.00  0.00    +0.235 C 
ENDBRANCH  16  17
BRANCH  19  20
ATOM     20  O   UNL     1      42.785  19.471  20.874  0.00  0.00    -0.300 OA
ATOM     21  C   UNL     1      41.448  18.975  20.944  0.00  0.00    +0.240 C 
ENDBRANCH  19  20
BRANCH  23  24
ATOM     24  O   UNL     1      45.033  15.282  20.713  0.00  0.00    -0.310 OA
ATOM     25  C   UNL     1      44.833  15.089  22.114  0.00  0.00    +0.242 C 
ENDBRANCH  23  24
ENDBRANCH  13  14
TORSDOF 4
ENDMDL
MODEL 3
REMARK VINA RESULT:      -5.5      2.005      4.159
REMARK  Name = ZINC95486054
REMARK  9 active torsions:
REMARK  status: ('A' for Active; 'I' for Inactive)
REMARK    1  A    between atoms: C1_1  and  C2_2
REMARK    2  A    between atoms: C2_2  and  C23_30
REMARK    3  A    between atoms: C12_13  and  C14_17
REMARK    4  A    between atoms: C16_19  and  O5_27
REMARK    5  A    between atoms: C17_20  and  O4_25
REMARK    6  A    between atoms: C19_22  and  O3_23
REMARK    7  A    between atoms: O3_23  and  C20_24
REMARK    8  A    between atoms: O4_25  and  C21_26
REMARK    9  A    between atoms: O5_27  and  C22_28
REMARK                            x       y       z     vdW  Elec       q    Type
REMARK                         _______ _______ _______ _____ _____    ______ ____
ROOT
ATOM      1  C   UNL     1      47.564  13.331  19.026  0.00  0.00    +0.033 C 
ATOM      2  C   UNL     1      46.243  13.476  18.269  0.00  0.00    +0.110 C 
ATOM      3  C   UNL     1      45.914  12.165  17.550  0.00  0.00    +0.078 C 
ATOM      4  C   UNL     1      45.118  13.822  19.254  0.00  0.00    +0.019 C 
ATOM      5  C   UNL     1      45.530  15.073  20.032  0.00  0.00    +0.099 C 
ATOM      6  C   UNL     1      46.027  16.126  19.075  0.00  0.00    -0.208 A 
ATOM      7  C   UNL     1      46.411  15.807  17.784  0.00  0.00    +0.207 A 
ATOM      8  C   UNL     1      46.873  16.803  16.920  0.00  0.00    -0.049 A 
ATOM      9  C   UNL     1      46.950  18.101  17.335  0.00  0.00    +0.150 A 
ATOM     10  C   UNL     1      46.561  18.437  18.634  0.00  0.00    -0.282 A 
ATOM     11  C   UNL     1      46.637  19.828  19.106  0.00  0.00    +0.413 C 
ATOM     12  O   UNL     1      47.230  20.683  18.482  0.00  0.00    -0.438 OA
ATOM     13  C   UNL     1      45.937  20.137  20.417  0.00  0.00    +0.015 C 
ATOM     26  C   UNL     1      46.197  18.954  21.362  0.00  0.00    +0.281 C 
ATOM     27  O   UNL     1      45.700  17.756  20.768  0.00  0.00    -0.301 OA
ATOM     28  C   UNL     1      46.093  17.443  19.511  0.00  0.00    +0.207 A 
ATOM     29  O   UNL     1      46.347  14.534  17.316  0.00  0.00    -0.297 OA
ENDROOT
BRANCH  13  14
ATOM     14  C   UNL     1      44.456  20.293  20.185  0.00  0.00    -0.114 A 
ATOM     15  C   UNL     1      43.581  19.317  20.628  0.00  0.00    +0.029 A 
ATOM     16  C   UNL     1      42.220  19.458  20.416  0.00  0.00    +0.067 A 
ATOM     19  C   UNL     1      41.732  20.582  19.757  0.00  0.00    +0.148 A 
ATOM     22  C   UNL     1      42.610  21.558  19.313  0.00  0.00    -0.118 A 
ATOM     23  C   UNL     1      43.972  21.416  19.532  0.00  0.00    +0.149 A 
BRANCH  16  17
ATOM     17  O   UNL     1      41.361  18.498  20.852  0.00  0.00    -0.303 OA
ATOM     18  C   UNL     1      41.827  17.631  21.890  0.00  0.00    +0.235 C 
ENDBRANCH  16  17
BRANCH  19  20
ATOM     20  O   UNL     1      40.396  20.722  19.547  0.00  0.00    -0.300 OA
ATOM     21  C   UNL     1      39.994  21.429  18.372  0.00  0.00    +0.240 C 
ENDBRANCH  19  20
BRANCH  23  24
ATOM     24  O   UNL     1      44.833  22.376  19.102  0.00  0.00    -0.310 OA
ATOM     25  C   UNL     1      44.710  23.670  19.694  0.00  0.00    +0.242 C 
ENDBRANCH  23  24
ENDBRANCH  13  14
TORSDOF 4
ENDMDL
MODEL 4
REMARK VINA RESULT:      -5.5      3.551      7.602
REMARK  Name = ZINC95486054
REMARK  9 active torsions:
REMARK  status: ('A' for Active; 'I' for Inactive)
REMARK    1  A    between atoms: C1_1  and  C2_2
REMARK    2  A    between atoms: C2_2  and  C23_30
REMARK    3  A    between atoms: C12_13  and  C14_17
REMARK    4  A    between atoms: C16_19  and  O5_27
REMARK    5  A    between atoms: C17_20  and  O4_25
REMARK    6  A    between atoms: C19_22  and  O3_23
REMARK    7  A    between atoms: O3_23  and  C20_24
REMARK    8  A    between atoms: O4_25  and  C21_26
REMARK    9  A    between atoms: O5_27  and  C22_28
REMARK                            x       y       z     vdW  Elec       q    Type
REMARK                         _______ _______ _______ _____ _____    ______ ____
ROOT
ATOM      1  C   UNL     1      44.754  22.511  19.760  0.00  0.00    +0.033 C 
ATOM      2  C   UNL     1      44.643  21.000  19.975  0.00  0.00    +0.110 C 
ATOM      3  C   UNL     1      43.175  20.615  20.175  0.00  0.00    +0.078 C 
ATOM      4  C   UNL     1      45.211  20.262  18.755  0.00  0.00    +0.019 C 
ATOM      5  C   UNL     1      46.640  20.753  18.520  0.00  0.00    +0.099 C 
ATOM      6  C   UNL     1      47.404  20.735  19.819  0.00  0.00    -0.208 A 
ATOM      7  C   UNL     1      46.754  20.677  21.040  0.00  0.00    +0.207 A 
ATOM      8  C   UNL     1      47.489  20.668  22.228  0.00  0.00    -0.049 A 
ATOM      9  C   UNL     1      48.853  20.714  22.203  0.00  0.00    +0.150 A 
ATOM     10  C   UNL     1      49.521  20.769  20.976  0.00  0.00    -0.282 A 
ATOM     11  C   UNL     1      50.989  20.823  20.922  0.00  0.00    +0.413 C 
ATOM     12  O   UNL     1      51.658  21.038  21.911  0.00  0.00    -0.438 OA
ATOM     13  C   UNL     1      51.625  20.598  19.562  0.00  0.00    +0.015 C 
ATOM     26  C   UNL     1      50.757  21.329  18.527  0.00  0.00    +0.281 C 
ATOM     27  O   UNL     1      49.426  20.816  18.579  0.00  0.00    -0.301 OA
ATOM     28  C   UNL     1      48.792  20.777  19.775  0.00  0.00    +0.207 A 
ATOM     29  O   UNL     1      45.401  20.620  21.124  0.00  0.00    -0.297 OA
ENDROOT
BRANCH  13  14
ATOM     14  C   UNL     1      51.663  19.123  19.250  0.00  0.00    -0.114 A 
ATOM     15  C   UNL     1      51.210  18.208  20.183  0.00  0.00    +0.029 A 
ATOM     16  C   UNL     1      51.243  16.853  19.900  0.00  0.00    +0.067 A 
ATOM     19  C   UNL     1      51.734  16.412  18.674  0.00  0.00    +0.148 A 
ATOM     22  C   UNL     1      52.188  17.330  17.741  0.00  0.00    -0.118 A 
ATOM     23  C   UNL     1      52.147  18.686  18.027  0.00  0.00    +0.149 A 
BRANCH  16  17
ATOM     17  O   UNL     1      50.797  15.955  20.818  0.00  0.00    -0.303 OA
ATOM     18  C   UNL     1      49.384  15.755  20.899  0.00  0.00    +0.235 C 
ENDBRANCH  16  17
BRANCH  19  20
ATOM     20  O   UNL     1      51.769  15.082  18.394  0.00  0.00    -0.300 OA
ATOM     21  C   UNL     1      51.081  14.649  17.219  0.00  0.00    +0.240 C 
ENDBRANCH  19  20
BRANCH  23  24
ATOM     24  O   UNL     1      52.588  19.588  17.109  0.00  0.00    -0.310 OA
ATOM     25  C   UNL     1      52.180  19.387  15.755  0.00  0.00    +0.242 C 
ENDBRANCH  23  24
ENDBRANCH  13  14
TORSDOF 4
ENDMDL
MODEL 5
REMARK VINA RESULT:      -5.3      2.732      7.881
REMARK  Name = ZINC95486054
REMARK  9 active torsions:
REMARK  status: ('A' for Active; 'I' for Inactive)
REMARK    1  A    between atoms: C1_1  and  C2_2
REMARK    2  A    between atoms: C2_2  and  C23_30
REMARK    3  A    between atoms: C12_13  and  C14_17
REMARK    4  A    between atoms: C16_19  and  O5_27
REMARK    5  A    between atoms: C17_20  and  O4_25
REMARK    6  A    between atoms: C19_22  and  O3_23
REMARK    7  A    between atoms: O3_23  and  C20_24
REMARK    8  A    between atoms: O4_25  and  C21_26
REMARK    9  A    between atoms: O5_27  and  C22_28
REMARK                            x       y       z     vdW  Elec       q    Type
REMARK                         _______ _______ _______ _____ _____    ______ ____
ROOT
ATOM      1  C   UNL     1      44.077  20.762  20.666  0.00  0.00    +0.033 C 
ATOM      2  C   UNL     1      43.391  19.841  19.654  0.00  0.00    +0.110 C 
ATOM      3  C   UNL     1      42.017  20.410  19.289  0.00  0.00    +0.078 C 
ATOM      4  C   UNL     1      44.255  19.724  18.392  0.00  0.00    +0.019 C 
ATOM      5  C   UNL     1      45.652  19.260  18.809  0.00  0.00    +0.099 C 
ATOM      6  C   UNL     1      45.538  18.081  19.741  0.00  0.00    -0.208 A 
ATOM      7  C   UNL     1      44.354  17.787  20.394  0.00  0.00    +0.207 A 
ATOM      8  C   UNL     1      44.280  16.690  21.258  0.00  0.00    -0.049 A 
ATOM      9  C   UNL     1      45.369  15.896  21.466  0.00  0.00    +0.150 A 
ATOM     10  C   UNL     1      46.570  16.179  20.810  0.00  0.00    -0.282 A 
ATOM     11  C   UNL     1      47.759  15.340  21.020  0.00  0.00    +0.413 C 
ATOM     12  O   UNL     1      47.813  14.522  21.914  0.00  0.00    -0.438 OA
ATOM     13  C   UNL     1      48.917  15.554  20.062  0.00  0.00    +0.015 C 
ATOM     26  C   UNL     1      49.035  17.066  19.821  0.00  0.00    +0.281 C 
ATOM     27  O   UNL     1      47.807  17.557  19.284  0.00  0.00    -0.301 OA
ATOM     28  C   UNL     1      46.655  17.279  19.937  0.00  0.00    +0.207 A 
ATOM     29  O   UNL     1      43.238  18.538  20.217  0.00  0.00    -0.297 OA
ENDROOT
BRANCH  13  14
ATOM     14  C   UNL     1      48.643  14.847  18.759  0.00  0.00    -0.114 A 
ATOM     15  C   UNL     1      47.434  14.204  18.563  0.00  0.00    +0.029 A 
ATOM     16  C   UNL     1      47.180  13.553  17.367  0.00  0.00    +0.067 A 
ATOM     19  C   UNL     1      48.142  13.547  16.362  0.00  0.00    +0.148 A 
ATOM     22  C   UNL     1      49.353  14.192  16.560  0.00  0.00    -0.118 A 
ATOM     23  C   UNL     1      49.601  14.847  17.756  0.00  0.00    +0.149 A 
BRANCH  16  17
ATOM     17  O   UNL     1      45.991  12.921  17.176  0.00  0.00    -0.303 OA
ATOM     18  C   UNL     1      45.105  12.851  18.296  0.00  0.00    +0.235 C 
ENDBRANCH  16  17
BRANCH  19  20
ATOM     20  O   UNL     1      47.895  12.909  15.187  0.00  0.00    -0.300 OA
ATOM     21  C   UNL     1      48.992  12.765  14.283  0.00  0.00    +0.240 C 
ENDBRANCH  19  20
BRANCH  23  24
ATOM     24  O   UNL     1      50.786  15.484  17.949  0.00  0.00    -0.310 OA
ATOM     25  C   UNL     1      51.493  15.905  16.782  0.00  0.00    +0.242 C 
ENDBRANCH  23  24
ENDBRANCH  13  14
TORSDOF 4
ENDMDL
MODEL 6
REMARK VINA RESULT:      -5.2      3.565      7.320
REMARK  Name = ZINC95486054
REMARK  9 active torsions:
REMARK  status: ('A' for Active; 'I' for Inactive)
REMARK    1  A    between atoms: C1_1  and  C2_2
REMARK    2  A    between atoms: C2_2  and  C23_30
REMARK    3  A    between atoms: C12_13  and  C14_17
REMARK    4  A    between atoms: C16_19  and  O5_27
REMARK    5  A    between atoms: C17_20  and  O4_25
REMARK    6  A    between atoms: C19_22  and  O3_23
REMARK    7  A    between atoms: O3_23  and  C20_24
REMARK    8  A    between atoms: O4_25  and  C21_26
REMARK    9  A    between atoms: O5_27  and  C22_28
REMARK                            x       y       z     vdW  Elec       q    Type
REMARK                         _______ _______ _______ _____ _____    ______ ____
ROOT
ATOM      1  C   UNL     1      51.661  21.011  17.993  0.00  0.00    +0.033 C 
ATOM      2  C   UNL     1      51.473  20.482  19.416  0.00  0.00    +0.110 C 
ATOM      3  C   UNL     1      52.322  21.304  20.388  0.00  0.00    +0.078 C 
ATOM      4  C   UNL     1      49.994  20.577  19.811  0.00  0.00    +0.019 C 
ATOM      5  C   UNL     1      49.167  19.838  18.757  0.00  0.00    +0.099 C 
ATOM      6  C   UNL     1      49.777  18.485  18.491  0.00  0.00    -0.208 A 
ATOM      7  C   UNL     1      51.081  18.196  18.853  0.00  0.00    +0.207 A 
ATOM      8  C   UNL     1      51.621  16.935  18.587  0.00  0.00    -0.049 A 
ATOM      9  C   UNL     1      50.874  15.974  17.971  0.00  0.00    +0.150 A 
ATOM     10  C   UNL     1      49.554  16.253  17.604  0.00  0.00    -0.282 A 
ATOM     11  C   UNL     1      48.729  15.235  16.936  0.00  0.00    +0.413 C 
ATOM     12  O   UNL     1      49.209  14.215  16.489  0.00  0.00    -0.438 OA
ATOM     13  C   UNL     1      47.243  15.530  16.833  0.00  0.00    +0.015 C 
ATOM     26  C   UNL     1      47.097  17.023  16.505  0.00  0.00    +0.281 C 
ATOM     27  O   UNL     1      47.719  17.796  17.531  0.00  0.00    -0.301 OA
ATOM     28  C   UNL     1      49.000  17.517  17.869  0.00  0.00    +0.207 A 
ATOM     29  O   UNL     1      51.866  19.110  19.476  0.00  0.00    -0.297 OA
ENDROOT
BRANCH  13  14
ATOM     14  C   UNL     1      46.566  15.224  18.145  0.00  0.00    -0.114 A 
ATOM     15  C   UNL     1      45.968  16.241  18.867  0.00  0.00    +0.029 A 
ATOM     16  C   UNL     1      45.345  15.963  20.072  0.00  0.00    +0.067 A 
ATOM     19  C   UNL     1      45.322  14.659  20.557  0.00  0.00    +0.148 A 
ATOM     22  C   UNL     1      45.921  13.641  19.833  0.00  0.00    -0.118 A 
ATOM     23  C   UNL     1      46.539  13.923  18.624  0.00  0.00    +0.149 A 
BRANCH  16  17
ATOM     17  O   UNL     1      44.758  16.964  20.781  0.00  0.00    -0.303 OA
ATOM     18  C   UNL     1      45.245  18.289  20.560  0.00  0.00    +0.235 C 
ENDBRANCH  16  17
BRANCH  19  20
ATOM     20  O   UNL     1      44.711  14.383  21.741  0.00  0.00    -0.300 OA
ATOM     21  C   UNL     1      45.196  13.257  22.474  0.00  0.00    +0.240 C 
ENDBRANCH  19  20
BRANCH  23  24
ATOM     24  O   UNL     1      47.123  12.924  17.910  0.00  0.00    -0.310 OA
ATOM     25  C   UNL     1      46.278  12.167  17.042  0.00  0.00    +0.242 C 
ENDBRANCH  23  24
ENDBRANCH  13  14
TORSDOF 4
ENDMDL
MODEL 7
REMARK VINA RESULT:      -5.2      2.878      5.468
REMARK  Name = ZINC95486054
REMARK  9 active torsions:
REMARK  status: ('A' for Active; 'I' for Inactive)
REMARK    1  A    between atoms: C1_1  and  C2_2
REMARK    2  A    between atoms: C2_2  and  C23_30
REMARK    3  A    between atoms: C12_13  and  C14_17
REMARK    4  A    between atoms: C16_19  and  O5_27
REMARK    5  A    between atoms: C17_20  and  O4_25
REMARK    6  A    between atoms: C19_22  and  O3_23
REMARK    7  A    between atoms: O3_23  and  C20_24
REMARK    8  A    between atoms: O4_25  and  C21_26
REMARK    9  A    between atoms: O5_27  and  C22_28
REMARK                            x       y       z     vdW  Elec       q    Type
REMARK                         _______ _______ _______ _____ _____    ______ ____
ROOT
ATOM      1  C   UNL     1      52.913  14.634  19.132  0.00  0.00    +0.033 C 
ATOM      2  C   UNL     1      51.659  14.335  18.307  0.00  0.00    +0.110 C 
ATOM      3  C   UNL     1      51.769  12.939  17.689  0.00  0.00    +0.078 C 
ATOM      4  C   UNL     1      50.419  14.406  19.208  0.00  0.00    +0.019 C 
ATOM      5  C   UNL     1      50.402  15.774  19.893  0.00  0.00    +0.099 C 
ATOM      6  C   UNL     1      50.639  16.857  18.871  0.00  0.00    -0.208 A 
ATOM      7  C   UNL     1      51.185  16.574  17.631  0.00  0.00    +0.207 A 
ATOM      8  C   UNL     1      51.399  17.600  16.706  0.00  0.00    -0.049 A 
ATOM      9  C   UNL     1      51.072  18.889  17.010  0.00  0.00    +0.150 A 
ATOM     10  C   UNL     1      50.517  19.187  18.258  0.00  0.00    -0.282 A 
ATOM     11  C   UNL     1      50.160  20.569  18.611  0.00  0.00    +0.413 C 
ATOM     12  O   UNL     1      50.523  21.514  17.943  0.00  0.00    -0.438 OA
ATOM     13  C   UNL     1      49.314  20.752  19.859  0.00  0.00    +0.015 C 
ATOM     26  C   UNL     1      49.838  19.764  20.912  0.00  0.00    +0.281 C 
ATOM     27  O   UNL     1      49.746  18.435  20.402  0.00  0.00    -0.301 OA
ATOM     28  C   UNL     1      50.295  18.163  19.195  0.00  0.00    +0.207 A 
ATOM     29  O   UNL     1      51.520  15.309  17.272  0.00  0.00    -0.297 OA
ENDROOT
BRANCH  13  14
ATOM     14  C   UNL     1      47.869  20.453  19.548  0.00  0.00    -0.114 A 
ATOM     15  C   UNL     1      47.549  19.454  18.647  0.00  0.00    +0.029 A 
ATOM     16  C   UNL     1      46.223  19.177  18.360  0.00  0.00    +0.067 A 
ATOM     19  C   UNL     1      45.211  19.905  18.980  0.00  0.00    +0.148 A 
ATOM     22  C   UNL     1      45.534  20.905  19.883  0.00  0.00    -0.118 A 
ATOM     23  C   UNL     1      46.863  21.175  20.172  0.00  0.00    +0.149 A 
BRANCH  16  17
ATOM     17  O   UNL     1      45.909  18.195  17.473  0.00  0.00    -0.303 OA
ATOM     18  C   UNL     1      46.986  17.392  16.985  0.00  0.00    +0.235 C 
ENDBRANCH  16  17
BRANCH  19  20
ATOM     20  O   UNL     1      43.908  19.635  18.700  0.00  0.00    -0.300 OA
ATOM     21  C   UNL     1      42.926  20.467  19.320  0.00  0.00    +0.240 C 
ENDBRANCH  19  20
BRANCH  23  24
ATOM     24  O   UNL     1      47.180  22.153  21.062  0.00  0.00    -0.310 OA
ATOM     25  C   UNL     1      46.202  23.170  21.282  0.00  0.00    +0.242 C 
ENDBRANCH  23  24
ENDBRANCH  13  14
TORSDOF 4
ENDMDL
MODEL 8
REMARK VINA RESULT:      -5.0      2.362      7.420
REMARK  Name = ZINC95486054
REMARK  9 active torsions:
REMARK  status: ('A' for Active; 'I' for Inactive)
REMARK    1  A    between atoms: C1_1  and  C2_2
REMARK    2  A    between atoms: C2_2  and  C23_30
REMARK    3  A    between atoms: C12_13  and  C14_17
REMARK    4  A    between atoms: C16_19  and  O5_27
REMARK    5  A    between atoms: C17_20  and  O4_25
REMARK    6  A    between atoms: C19_22  and  O3_23
REMARK    7  A    between atoms: O3_23  and  C20_24
REMARK    8  A    between atoms: O4_25  and  C21_26
REMARK    9  A    between atoms: O5_27  and  C22_28
REMARK                            x       y       z     vdW  Elec       q    Type
REMARK                         _______ _______ _______ _____ _____    ______ ____
ROOT
ATOM      1  C   UNL     1      45.050  22.640  18.979  0.00  0.00    +0.033 C 
ATOM      2  C   UNL     1      45.207  22.024  20.372  0.00  0.00    +0.110 C 
ATOM      3  C   UNL     1      44.745  23.026  21.433  0.00  0.00    +0.078 C 
ATOM      4  C   UNL     1      44.366  20.744  20.468  0.00  0.00    +0.019 C 
ATOM      5  C   UNL     1      44.778  19.813  19.325  0.00  0.00    +0.099 C 
ATOM      6  C   UNL     1      46.281  19.711  19.270  0.00  0.00    -0.208 A 
ATOM      7  C   UNL     1      47.093  20.642  19.895  0.00  0.00    +0.207 A 
ATOM      8  C   UNL     1      48.483  20.525  19.821  0.00  0.00    -0.049 A 
ATOM      9  C   UNL     1      49.059  19.494  19.138  0.00  0.00    +0.150 A 
ATOM     10  C   UNL     1      48.250  18.545  18.506  0.00  0.00    -0.282 A 
ATOM     11  C   UNL     1      48.846  17.426  17.761  0.00  0.00    +0.413 C 
ATOM     12  O   UNL     1      50.026  17.401  17.482  0.00  0.00    -0.438 OA
ATOM     13  C   UNL     1      47.905  16.306  17.355  0.00  0.00    +0.015 C 
ATOM     26  C   UNL     1      46.588  16.958  16.907  0.00  0.00    +0.281 C 
ATOM     27  O   UNL     1      46.055  17.733  17.980  0.00  0.00    -0.301 OA
ATOM     28  C   UNL     1      46.850  18.652  18.576  0.00  0.00    +0.207 A 
ATOM     29  O   UNL     1      46.575  21.682  20.596  0.00  0.00    -0.297 OA
ENDROOT
BRANCH  13  14
ATOM     14  C   UNL     1      47.654  15.395  18.529  0.00  0.00    -0.114 A 
ATOM     15  C   UNL     1      48.203  15.692  19.763  0.00  0.00    +0.029 A 
ATOM     16  C   UNL     1      47.973  14.857  20.844  0.00  0.00    +0.067 A 
ATOM     19  C   UNL     1      47.189  13.718  20.687  0.00  0.00    +0.148 A 
ATOM     22  C   UNL     1      46.639  13.422  19.450  0.00  0.00    -0.118 A 
ATOM     23  C   UNL     1      46.867  14.264  18.372  0.00  0.00    +0.149 A 
BRANCH  16  17
ATOM     17  O   UNL     1      48.515  15.149  22.057  0.00  0.00    -0.303 OA
ATOM     18  C   UNL     1      49.902  14.856  22.237  0.00  0.00    +0.235 C 
ENDBRANCH  16  17
BRANCH  19  20
ATOM     20  O   UNL     1      46.963  12.896  21.747  0.00  0.00    -0.300 OA
ATOM     21  C   UNL     1      45.746  13.090  22.470  0.00  0.00    +0.240 C 
ENDBRANCH  19  20
BRANCH  23  24
ATOM     24  O   UNL     1      46.324  13.977  17.159  0.00  0.00    -0.310 OA
ATOM     25  C   UNL     1      46.789  12.796  16.504  0.00  0.00    +0.242 C 
ENDBRANCH  23  24
ENDBRANCH  13  14
TORSDOF 4
ENDMDL
MODEL 9
REMARK VINA RESULT:      -5.0      3.522      7.324
REMARK  Name = ZINC95486054
REMARK  9 active torsions:
REMARK  status: ('A' for Active; 'I' for Inactive)
REMARK    1  A    between atoms: C1_1  and  C2_2
REMARK    2  A    between atoms: C2_2  and  C23_30
REMARK    3  A    between atoms: C12_13  and  C14_17
REMARK    4  A    between atoms: C16_19  and  O5_27
REMARK    5  A    between atoms: C17_20  and  O4_25
REMARK    6  A    between atoms: C19_22  and  O3_23
REMARK    7  A    between atoms: O3_23  and  C20_24
REMARK    8  A    between atoms: O4_25  and  C21_26
REMARK    9  A    between atoms: O5_27  and  C22_28
REMARK                            x       y       z     vdW  Elec       q    Type
REMARK                         _______ _______ _______ _____ _____    ______ ____
ROOT
ATOM      1  C   UNL     1      52.501  20.787  18.754  0.00  0.00    +0.033 C 
ATOM      2  C   UNL     1      51.668  20.367  17.541  0.00  0.00    +0.110 C 
ATOM      3  C   UNL     1      52.214  21.045  16.282  0.00  0.00    +0.078 C 
ATOM      4  C   UNL     1      51.727  18.843  17.375  0.00  0.00    +0.019 C 
ATOM      5  C   UNL     1      51.280  18.200  18.690  0.00  0.00    +0.099 C 
ATOM      6  C   UNL     1      50.002  18.846  19.162  0.00  0.00    -0.208 A 
ATOM      7  C   UNL     1      49.588  20.073  18.673  0.00  0.00    +0.207 A 
ATOM      8  C   UNL     1      48.402  20.650  19.135  0.00  0.00    -0.049 A 
ATOM      9  C   UNL     1      47.636  20.013  20.067  0.00  0.00    +0.150 A 
ATOM     10  C   UNL     1      48.041  18.772  20.566  0.00  0.00    -0.282 A 
ATOM     11  C   UNL     1      47.236  18.067  21.574  0.00  0.00    +0.413 C 
ATOM     12  O   UNL     1      46.327  18.615  22.163  0.00  0.00    -0.438 OA
ATOM     13  C   UNL     1      47.602  16.618  21.842  0.00  0.00    +0.015 C 
ATOM     26  C   UNL     1      49.135  16.528  21.834  0.00  0.00    +0.281 C 
ATOM     27  O   UNL     1      49.629  16.973  20.571  0.00  0.00    -0.301 OA
ATOM     28  C   UNL     1      49.232  18.181  20.107  0.00  0.00    +0.207 A 
ATOM     29  O   UNL     1      50.306  20.746  17.739  0.00  0.00    -0.297 OA
ENDROOT
BRANCH  13  14
ATOM     14  C   UNL     1      47.030  15.736  20.762  0.00  0.00    -0.114 A 
ATOM     15  C   UNL     1      46.885  16.224  19.476  0.00  0.00    +0.029 A 
ATOM     16  C   UNL     1      46.360  15.415  18.482  0.00  0.00    +0.067 A 
ATOM     19  C   UNL     1      45.980  14.110  18.777  0.00  0.00    +0.148 A 
ATOM     22  C   UNL     1      46.126  13.622  20.066  0.00  0.00    -0.118 A 
ATOM     23  C   UNL     1      46.658  14.433  21.057  0.00  0.00    +0.149 A 
BRANCH  16  17
ATOM     17  O   UNL     1      46.217  15.897  17.218  0.00  0.00    -0.303 OA
ATOM     18  C   UNL     1      46.959  17.071  16.882  0.00  0.00    +0.235 C 
ENDBRANCH  16  17
BRANCH  19  20
ATOM     20  O   UNL     1      45.463  13.314  17.803  0.00  0.00    -0.300 OA
ATOM     21  C   UNL     1      46.217  12.153  17.447  0.00  0.00    +0.240 C 
ENDBRANCH  19  20
BRANCH  23  24
ATOM     24  O   UNL     1      46.806  13.954  22.321  0.00  0.00    -0.310 OA
ATOM     25  C   UNL     1      47.596  12.774  22.477  0.00  0.00    +0.242 C 
ENDBRANCH  23  24
ENDBRANCH  13  14
TORSDOF 4
ENDMDL
