MODEL 1
REMARK VINA RESULT:      -6.5      0.000      0.000
REMARK  Name = ZINC95486165
REMARK  12 active torsions:
REMARK  status: ('A' for Active; 'I' for Inactive)
REMARK    1  A    between atoms: C1_1  and  C2_2
REMARK    2  A    between atoms: C4_4  and  O4_32
REMARK    3  A    between atoms: C7_7  and  C8_8
REMARK    4  A    between atoms: C9_9  and  O2_24
REMARK    5  A    between atoms: C11_11  and  O1_23
REMARK    6  A    between atoms: C15_15  and  C19_22
REMARK    7  A    between atoms: N1_17  and  C18_21
REMARK    8  A    between atoms: C16_18  and  C17_20
REMARK    9  A    between atoms: O2_24  and  C20_25
REMARK   10  A    between atoms: C24_29  and  O3_30
REMARK   11  A    between atoms: O3_30  and  C25_31
REMARK   12  A    between atoms: O4_32  and  C26_33
REMARK                            x       y       z     vdW  Elec       q    Type
REMARK                         _______ _______ _______ _____ _____    ______ ____
ROOT
ATOM     16  C   UNL     1      44.856  19.681  20.461  0.00  0.00    -0.050 A 
ATOM     17  C   UNL     1      45.876  20.394  21.099  0.00  0.00    +0.187 A 
ATOM     20  C   UNL     1      45.788  21.771  21.196  0.00  0.00    -0.085 A 
ATOM     21  C   UNL     1      44.695  22.435  20.663  0.00  0.00    +0.183 A 
ATOM     24  C   UNL     1      43.677  21.727  20.028  0.00  0.00    -0.194 A 
ATOM     25  C   UNL     1      42.508  22.496  19.470  0.00  0.00    +0.240 C 
ATOM     26  C   UNL     1      43.018  23.775  18.803  0.00  0.00    +0.089 C 
ATOM     27  N   UNL     1      41.794  21.693  18.468  0.00  0.00    -0.383 N 
ATOM     28  H   UNL     1      42.388  21.531  17.669  0.00  0.00    +0.423 HD
ATOM     29  C   UNL     1      40.581  22.405  18.045  0.00  0.00    +0.323 C 
ATOM     30  C   UNL     1      41.424  20.405  19.075  0.00  0.00    +0.170 C 
ATOM     31  C   UNL     1      40.421  19.678  18.176  0.00  0.00    +0.093 C 
ATOM     32  C   UNL     1      42.687  19.557  19.227  0.00  0.00    +0.135 C 
ATOM     33  C   UNL     1      43.759  20.357  19.919  0.00  0.00    -0.022 A 
ENDROOT
BRANCH  16  15
ATOM      1  C   UNL     1      43.683  18.036  22.505  0.00  0.00    +0.093 C 
ATOM      2  C   UNL     1      44.381  17.403  21.330  0.00  0.00    +0.005 A 
ATOM      3  C   UNL     1      44.449  16.018  21.237  0.00  0.00    -0.112 A 
ATOM      4  C   UNL     1      45.081  15.411  20.173  0.00  0.00    +0.190 A 
ATOM      7  C   UNL     1      45.667  16.199  19.163  0.00  0.00    -0.105 A 
ATOM      8  C   UNL     1      45.602  17.610  19.251  0.00  0.00    +0.048 A 
ATOM      9  C   UNL     1      46.185  18.393  18.245  0.00  0.00    -0.050 A 
ATOM     10  C   UNL     1      46.809  17.795  17.192  0.00  0.00    +0.080 A 
ATOM     11  C   UNL     1      46.880  16.409  17.095  0.00  0.00    -0.111 A 
ATOM     12  C   UNL     1      46.319  15.605  18.064  0.00  0.00    +0.178 A 
ATOM     15  C   UNL     1      44.941  18.207  20.353  0.00  0.00    -0.110 A 
BRANCH   4   5
ATOM      5  O   UNL     1      45.139  14.056  20.099  0.00  0.00    -0.287 OA
ATOM      6  C   UNL     1      45.481  13.355  21.298  0.00  0.00    +0.245 C 
ENDBRANCH   4   5
BRANCH  12  13
ATOM     13  O   UNL     1      46.394  14.253  17.960  0.00  0.00    -0.289 OA
ATOM     14  C   UNL     1      46.755  13.720  16.685  0.00  0.00    +0.245 C 
ENDBRANCH  12  13
ENDBRANCH  16  15
BRANCH  17  18
ATOM     18  O   UNL     1      46.944  19.738  21.622  0.00  0.00    -0.292 OA
ATOM     19  C   UNL     1      48.222  20.022  21.050  0.00  0.00    +0.254 C 
ENDBRANCH  17  18
BRANCH  21  22
ATOM     22  O   UNL     1      44.614  23.788  20.763  0.00  0.00    -0.491 OA
ATOM     23  H   UNL     1      44.324  24.101  21.631  0.00  0.00    +0.401 HD
ENDBRANCH  21  22
TORSDOF 5
ENDMDL
MODEL 2
REMARK VINA RESULT:      -5.8      3.462      6.784
REMARK  Name = ZINC95486165
REMARK  12 active torsions:
REMARK  status: ('A' for Active; 'I' for Inactive)
REMARK    1  A    between atoms: C1_1  and  C2_2
REMARK    2  A    between atoms: C4_4  and  O4_32
REMARK    3  A    between atoms: C7_7  and  C8_8
REMARK    4  A    between atoms: C9_9  and  O2_24
REMARK    5  A    between atoms: C11_11  and  O1_23
REMARK    6  A    between atoms: C15_15  and  C19_22
REMARK    7  A    between atoms: N1_17  and  C18_21
REMARK    8  A    between atoms: C16_18  and  C17_20
REMARK    9  A    between atoms: O2_24  and  C20_25
REMARK   10  A    between atoms: C24_29  and  O3_30
REMARK   11  A    between atoms: O3_30  and  C25_31
REMARK   12  A    between atoms: O4_32  and  C26_33
REMARK                            x       y       z     vdW  Elec       q    Type
REMARK                         _______ _______ _______ _____ _____    ______ ____
ROOT
ATOM     16  C   UNL     1      48.662  17.937  18.982  0.00  0.00    -0.050 A 
ATOM     17  C   UNL     1      48.751  17.156  17.825  0.00  0.00    +0.187 A 
ATOM     20  C   UNL     1      49.862  17.270  17.008  0.00  0.00    -0.085 A 
ATOM     21  C   UNL     1      50.877  18.154  17.340  0.00  0.00    +0.183 A 
ATOM     24  C   UNL     1      50.791  18.932  18.491  0.00  0.00    -0.194 A 
ATOM     25  C   UNL     1      51.923  19.874  18.807  0.00  0.00    +0.240 C 
ATOM     26  C   UNL     1      52.392  20.550  17.518  0.00  0.00    +0.089 C 
ATOM     27  N   UNL     1      51.483  20.911  19.751  0.00  0.00    -0.383 N 
ATOM     28  H   UNL     1      50.786  21.498  19.318  0.00  0.00    +0.423 HD
ATOM     29  C   UNL     1      52.636  21.727  20.153  0.00  0.00    +0.323 C 
ATOM     30  C   UNL     1      50.906  20.255  20.934  0.00  0.00    +0.170 C 
ATOM     31  C   UNL     1      50.726  21.278  22.057  0.00  0.00    +0.093 C 
ATOM     32  C   UNL     1      49.548  19.666  20.553  0.00  0.00    +0.135 C 
ATOM     33  C   UNL     1      49.685  18.831  19.306  0.00  0.00    -0.022 A 
ENDROOT
BRANCH  16  15
ATOM      1  C   UNL     1      48.607  15.922  21.032  0.00  0.00    +0.093 C 
ATOM      2  C   UNL     1      47.437  16.855  20.853  0.00  0.00    +0.005 A 
ATOM      3  C   UNL     1      46.333  16.740  21.689  0.00  0.00    -0.112 A 
ATOM      4  C   UNL     1      45.249  17.579  21.549  0.00  0.00    +0.190 A 
ATOM      7  C   UNL     1      45.253  18.569  20.547  0.00  0.00    -0.105 A 
ATOM      8  C   UNL     1      46.374  18.693  19.692  0.00  0.00    +0.048 A 
ATOM      9  C   UNL     1      46.378  19.679  18.695  0.00  0.00    -0.050 A 
ATOM     10  C   UNL     1      45.308  20.510  18.556  0.00  0.00    +0.080 A 
ATOM     11  C   UNL     1      44.200  20.399  19.391  0.00  0.00    -0.111 A 
ATOM     12  C   UNL     1      44.159  19.441  20.381  0.00  0.00    +0.178 A 
ATOM     15  C   UNL     1      47.477  17.820  19.862  0.00  0.00    -0.110 A 
BRANCH   4   5
ATOM      5  O   UNL     1      44.178  17.451  22.375  0.00  0.00    -0.287 OA
ATOM      6  C   UNL     1      43.612  16.144  22.504  0.00  0.00    +0.245 C 
ENDBRANCH   4   5
BRANCH  12  13
ATOM     13  O   UNL     1      43.073  19.340  21.191  0.00  0.00    -0.289 OA
ATOM     14  C   UNL     1      41.793  19.313  20.559  0.00  0.00    +0.245 C 
ENDBRANCH  12  13
ENDBRANCH  16  15
BRANCH  17  18
ATOM     18  O   UNL     1      47.755  16.289  17.507  0.00  0.00    -0.292 OA
ATOM     19  C   UNL     1      46.809  16.720  16.527  0.00  0.00    +0.254 C 
ENDBRANCH  17  18
BRANCH  21  22
ATOM     22  O   UNL     1      51.966  18.261  16.534  0.00  0.00    -0.491 OA
ATOM     23  H   UNL     1      51.912  17.728  15.728  0.00  0.00    +0.401 HD
ENDBRANCH  21  22
TORSDOF 5
ENDMDL
MODEL 3
REMARK VINA RESULT:      -5.6      3.420      7.628
REMARK  Name = ZINC95486165
REMARK  12 active torsions:
REMARK  status: ('A' for Active; 'I' for Inactive)
REMARK    1  A    between atoms: C1_1  and  C2_2
REMARK    2  A    between atoms: C4_4  and  O4_32
REMARK    3  A    between atoms: C7_7  and  C8_8
REMARK    4  A    between atoms: C9_9  and  O2_24
REMARK    5  A    between atoms: C11_11  and  O1_23
REMARK    6  A    between atoms: C15_15  and  C19_22
REMARK    7  A    between atoms: N1_17  and  C18_21
REMARK    8  A    between atoms: C16_18  and  C17_20
REMARK    9  A    between atoms: O2_24  and  C20_25
REMARK   10  A    between atoms: C24_29  and  O3_30
REMARK   11  A    between atoms: O3_30  and  C25_31
REMARK   12  A    between atoms: O4_32  and  C26_33
REMARK                            x       y       z     vdW  Elec       q    Type
REMARK                         _______ _______ _______ _____ _____    ______ ____
ROOT
ATOM     16  C   UNL     1      48.746  18.998  20.236  0.00  0.00    -0.050 A 
ATOM     17  C   UNL     1      48.635  17.835  21.005  0.00  0.00    +0.187 A 
ATOM     20  C   UNL     1      49.465  16.760  20.742  0.00  0.00    -0.085 A 
ATOM     21  C   UNL     1      50.400  16.841  19.723  0.00  0.00    +0.183 A 
ATOM     24  C   UNL     1      50.515  17.998  18.956  0.00  0.00    -0.194 A 
ATOM     25  C   UNL     1      51.551  18.035  17.863  0.00  0.00    +0.240 C 
ATOM     26  C   UNL     1      51.567  16.689  17.137  0.00  0.00    +0.089 C 
ATOM     27  N   UNL     1      51.237  19.092  16.891  0.00  0.00    -0.383 N 
ATOM     28  H   UNL     1      50.377  18.874  16.411  0.00  0.00    +0.423 HD
ATOM     29  C   UNL     1      52.332  19.203  15.919  0.00  0.00    +0.323 C 
ATOM     30  C   UNL     1      51.087  20.365  17.614  0.00  0.00    +0.170 C 
ATOM     31  C   UNL     1      51.070  21.526  16.617  0.00  0.00    +0.093 C 
ATOM     32  C   UNL     1      49.770  20.334  18.389  0.00  0.00    +0.135 C 
ATOM     33  C   UNL     1      49.687  19.070  19.205  0.00  0.00    -0.022 A 
ENDROOT
BRANCH  16  15
ATOM      1  C   UNL     1      49.646  21.089  21.991  0.00  0.00    +0.093 C 
ATOM      2  C   UNL     1      48.282  21.167  21.353  0.00  0.00    +0.005 A 
ATOM      3  C   UNL     1      47.464  22.259  21.615  0.00  0.00    -0.112 A 
ATOM      4  C   UNL     1      46.213  22.359  21.046  0.00  0.00    +0.190 A 
ATOM      7  C   UNL     1      45.751  21.342  20.187  0.00  0.00    -0.105 A 
ATOM      8  C   UNL     1      46.579  20.226  19.917  0.00  0.00    +0.048 A 
ATOM      9  C   UNL     1      46.118  19.215  19.061  0.00  0.00    -0.050 A 
ATOM     10  C   UNL     1      44.882  19.311  18.497  0.00  0.00    +0.080 A 
ATOM     11  C   UNL     1      44.060  20.402  18.755  0.00  0.00    -0.111 A 
ATOM     12  C   UNL     1      44.476  21.416  19.591  0.00  0.00    +0.178 A 
ATOM     15  C   UNL     1      47.862  20.153  20.511  0.00  0.00    -0.110 A 
BRANCH   4   5
ATOM      5  O   UNL     1      45.427  23.433  21.313  0.00  0.00    -0.287 OA
ATOM      6  C   UNL     1      45.964  24.722  21.006  0.00  0.00    +0.245 C 
ENDBRANCH   4   5
BRANCH  12  13
ATOM     13  O   UNL     1      43.666  22.478  19.837  0.00  0.00    -0.289 OA
ATOM     14  C   UNL     1      42.425  22.524  19.131  0.00  0.00    +0.245 C 
ENDBRANCH  12  13
ENDBRANCH  16  15
BRANCH  17  18
ATOM     18  O   UNL     1      47.718  17.763  22.004  0.00  0.00    -0.292 OA
ATOM     19  C   UNL     1      46.676  16.796  21.860  0.00  0.00    +0.254 C 
ENDBRANCH  17  18
BRANCH  21  22
ATOM     22  O   UNL     1      51.213  15.782  19.470  0.00  0.00    -0.491 OA
ATOM     23  H   UNL     1      50.992  15.301  18.660  0.00  0.00    +0.401 HD
ENDBRANCH  21  22
TORSDOF 5
ENDMDL
MODEL 4
REMARK VINA RESULT:      -5.5      4.351      8.218
REMARK  Name = ZINC95486165
REMARK  12 active torsions:
REMARK  status: ('A' for Active; 'I' for Inactive)
REMARK    1  A    between atoms: C1_1  and  C2_2
REMARK    2  A    between atoms: C4_4  and  O4_32
REMARK    3  A    between atoms: C7_7  and  C8_8
REMARK    4  A    between atoms: C9_9  and  O2_24
REMARK    5  A    between atoms: C11_11  and  O1_23
REMARK    6  A    between atoms: C15_15  and  C19_22
REMARK    7  A    between atoms: N1_17  and  C18_21
REMARK    8  A    between atoms: C16_18  and  C17_20
REMARK    9  A    between atoms: O2_24  and  C20_25
REMARK   10  A    between atoms: C24_29  and  O3_30
REMARK   11  A    between atoms: O3_30  and  C25_31
REMARK   12  A    between atoms: O4_32  and  C26_33
REMARK                            x       y       z     vdW  Elec       q    Type
REMARK                         _______ _______ _______ _____ _____    ______ ____
ROOT
ATOM     16  C   UNL     1      47.466  15.003  18.474  0.00  0.00    -0.050 A 
ATOM     17  C   UNL     1      46.602  15.344  19.519  0.00  0.00    +0.187 A 
ATOM     20  C   UNL     1      45.461  14.592  19.735  0.00  0.00    -0.085 A 
ATOM     21  C   UNL     1      45.182  13.508  18.919  0.00  0.00    +0.183 A 
ATOM     24  C   UNL     1      46.041  13.165  17.878  0.00  0.00    -0.194 A 
ATOM     25  C   UNL     1      45.693  11.974  17.023  0.00  0.00    +0.240 C 
ATOM     26  C   UNL     1      44.190  11.978  16.741  0.00  0.00    +0.089 C 
ATOM     27  N   UNL     1      46.414  12.031  15.743  0.00  0.00    -0.383 N 
ATOM     28  H   UNL     1      46.099  12.823  15.205  0.00  0.00    +0.423 HD
ATOM     29  C   UNL     1      46.171  10.794  14.990  0.00  0.00    +0.323 C 
ATOM     30  C   UNL     1      47.853  12.165  16.020  0.00  0.00    +0.170 C 
ATOM     31  C   UNL     1      48.652  11.916  14.739  0.00  0.00    +0.093 C 
ATOM     32  C   UNL     1      48.122  13.583  16.526  0.00  0.00    +0.135 C 
ATOM     33  C   UNL     1      47.175  13.912  17.650  0.00  0.00    -0.022 A 
ENDROOT
BRANCH  16  15
ATOM      1  C   UNL     1      47.354  17.288  16.733  0.00  0.00    +0.093 C 
ATOM      2  C   UNL     1      48.650  16.905  17.400  0.00  0.00    +0.005 A 
ATOM      3  C   UNL     1      49.789  17.666  17.172  0.00  0.00    -0.112 A 
ATOM      4  C   UNL     1      50.989  17.340  17.768  0.00  0.00    +0.190 A 
ATOM      7  C   UNL     1      51.067  16.221  18.620  0.00  0.00    -0.105 A 
ATOM      8  C   UNL     1      49.910  15.441  18.857  0.00  0.00    +0.048 A 
ATOM      9  C   UNL     1      49.988  14.328  19.706  0.00  0.00    -0.050 A 
ATOM     10  C   UNL     1      51.172  14.004  20.297  0.00  0.00    +0.080 A 
ATOM     11  C   UNL     1      52.316  14.764  20.072  0.00  0.00    -0.111 A 
ATOM     12  C   UNL     1      52.279  15.864  19.244  0.00  0.00    +0.178 A 
ATOM     15  C   UNL     1      48.689  15.802  18.235  0.00  0.00    -0.110 A 
BRANCH   4   5
ATOM      5  O   UNL     1      52.093  18.095  17.534  0.00  0.00    -0.287 OA
ATOM      6  C   UNL     1      51.965  19.150  16.577  0.00  0.00    +0.245 C 
ENDBRANCH   4   5
BRANCH  12  13
ATOM     13  O   UNL     1      53.401  16.599  19.031  0.00  0.00    -0.289 OA
ATOM     14  C   UNL     1      54.642  16.023  19.442  0.00  0.00    +0.245 C 
ENDBRANCH  12  13
ENDBRANCH  16  15
BRANCH  17  18
ATOM     18  O   UNL     1      46.882  16.407  20.318  0.00  0.00    -0.292 OA
ATOM     19  C   UNL     1      45.976  17.510  20.270  0.00  0.00    +0.254 C 
ENDBRANCH  17  18
BRANCH  21  22
ATOM     22  O   UNL     1      44.060  12.772  19.137  0.00  0.00    -0.491 OA
ATOM     23  H   UNL     1      43.356  13.255  19.592  0.00  0.00    +0.401 HD
ENDBRANCH  21  22
TORSDOF 5
ENDMDL
MODEL 5
REMARK VINA RESULT:      -5.4      3.093      6.485
REMARK  Name = ZINC95486165
REMARK  12 active torsions:
REMARK  status: ('A' for Active; 'I' for Inactive)
REMARK    1  A    between atoms: C1_1  and  C2_2
REMARK    2  A    between atoms: C4_4  and  O4_32
REMARK    3  A    between atoms: C7_7  and  C8_8
REMARK    4  A    between atoms: C9_9  and  O2_24
REMARK    5  A    between atoms: C11_11  and  O1_23
REMARK    6  A    between atoms: C15_15  and  C19_22
REMARK    7  A    between atoms: N1_17  and  C18_21
REMARK    8  A    between atoms: C16_18  and  C17_20
REMARK    9  A    between atoms: O2_24  and  C20_25
REMARK   10  A    between atoms: C24_29  and  O3_30
REMARK   11  A    between atoms: O3_30  and  C25_31
REMARK   12  A    between atoms: O4_32  and  C26_33
REMARK                            x       y       z     vdW  Elec       q    Type
REMARK                         _______ _______ _______ _____ _____    ______ ____
ROOT
ATOM     16  C   UNL     1      47.688  16.960  20.127  0.00  0.00    -0.050 A 
ATOM     17  C   UNL     1      48.046  15.764  20.757  0.00  0.00    +0.187 A 
ATOM     20  C   UNL     1      47.087  15.037  21.438  0.00  0.00    -0.085 A 
ATOM     21  C   UNL     1      45.780  15.495  21.492  0.00  0.00    +0.183 A 
ATOM     24  C   UNL     1      45.419  16.686  20.865  0.00  0.00    -0.194 A 
ATOM     25  C   UNL     1      43.985  17.136  20.950  0.00  0.00    +0.240 C 
ATOM     26  C   UNL     1      43.459  16.882  22.364  0.00  0.00    +0.089 C 
ATOM     27  N   UNL     1      43.878  18.572  20.656  0.00  0.00    -0.383 N 
ATOM     28  H   UNL     1      44.348  19.106  21.371  0.00  0.00    +0.423 HD
ATOM     29  C   UNL     1      42.461  18.956  20.605  0.00  0.00    +0.323 C 
ATOM     30  C   UNL     1      44.507  18.833  19.353  0.00  0.00    +0.170 C 
ATOM     31  C   UNL     1      44.144  20.241  18.876  0.00  0.00    +0.093 C 
ATOM     32  C   UNL     1      46.024  18.720  19.512  0.00  0.00    +0.135 C 
ATOM     33  C   UNL     1      46.370  17.420  20.192  0.00  0.00    -0.022 A 
ENDROOT
BRANCH  16  15
ATOM      1  C   UNL     1      48.268  16.329  17.384  0.00  0.00    +0.093 C 
ATOM      2  C   UNL     1      48.997  17.452  18.075  0.00  0.00    +0.005 A 
ATOM      3  C   UNL     1      49.949  18.185  17.376  0.00  0.00    -0.112 A 
ATOM      4  C   UNL     1      50.632  19.217  17.981  0.00  0.00    +0.190 A 
ATOM      7  C   UNL     1      50.367  19.539  19.327  0.00  0.00    -0.105 A 
ATOM      8  C   UNL     1      49.399  18.797  20.045  0.00  0.00    +0.048 A 
ATOM      9  C   UNL     1      49.136  19.119  21.384  0.00  0.00    -0.050 A 
ATOM     10  C   UNL     1      49.809  20.140  21.985  0.00  0.00    +0.080 A 
ATOM     11  C   UNL     1      50.762  20.876  21.289  0.00  0.00    -0.111 A 
ATOM     12  C   UNL     1      51.050  20.589  19.972  0.00  0.00    +0.178 A 
ATOM     15  C   UNL     1      48.708  17.745  19.396  0.00  0.00    -0.110 A 
BRANCH   4   5
ATOM      5  O   UNL     1      51.559  19.922  17.283  0.00  0.00    -0.287 OA
ATOM      6  C   UNL     1      51.898  19.436  15.981  0.00  0.00    +0.245 C 
ENDBRANCH   4   5
BRANCH  12  13
ATOM     13  O   UNL     1      51.982  21.314  19.301  0.00  0.00    -0.289 OA
ATOM     14  C   UNL     1      52.883  22.097  20.086  0.00  0.00    +0.245 C 
ENDBRANCH  12  13
ENDBRANCH  16  15
BRANCH  17  18
ATOM     18  O   UNL     1      49.328  15.319  20.699  0.00  0.00    -0.292 OA
ATOM     19  C   UNL     1      49.544  14.040  20.100  0.00  0.00    +0.254 C 
ENDBRANCH  17  18
BRANCH  21  22
ATOM     22  O   UNL     1      44.841  14.776  22.162  0.00  0.00    -0.491 OA
ATOM     23  H   UNL     1      44.954  14.781  23.123  0.00  0.00    +0.401 HD
ENDBRANCH  21  22
TORSDOF 5
ENDMDL
MODEL 6
REMARK VINA RESULT:      -5.4      3.256      5.997
REMARK  Name = ZINC95486165
REMARK  12 active torsions:
REMARK  status: ('A' for Active; 'I' for Inactive)
REMARK    1  A    between atoms: C1_1  and  C2_2
REMARK    2  A    between atoms: C4_4  and  O4_32
REMARK    3  A    between atoms: C7_7  and  C8_8
REMARK    4  A    between atoms: C9_9  and  O2_24
REMARK    5  A    between atoms: C11_11  and  O1_23
REMARK    6  A    between atoms: C15_15  and  C19_22
REMARK    7  A    between atoms: N1_17  and  C18_21
REMARK    8  A    between atoms: C16_18  and  C17_20
REMARK    9  A    between atoms: O2_24  and  C20_25
REMARK   10  A    between atoms: C24_29  and  O3_30
REMARK   11  A    between atoms: O3_30  and  C25_31
REMARK   12  A    between atoms: O4_32  and  C26_33
REMARK                            x       y       z     vdW  Elec       q    Type
REMARK                         _______ _______ _______ _____ _____    ______ ____
ROOT
ATOM     16  C   UNL     1      47.792  17.833  20.751  0.00  0.00    -0.050 A 
ATOM     17  C   UNL     1      48.146  16.611  21.330  0.00  0.00    +0.187 A 
ATOM     20  C   UNL     1      47.156  15.726  21.719  0.00  0.00    -0.085 A 
ATOM     21  C   UNL     1      45.822  16.055  21.532  0.00  0.00    +0.183 A 
ATOM     24  C   UNL     1      45.466  17.271  20.955  0.00  0.00    -0.194 A 
ATOM     25  C   UNL     1      44.003  17.577  20.771  0.00  0.00    +0.240 C 
ATOM     26  C   UNL     1      43.231  17.117  22.009  0.00  0.00    +0.089 C 
ATOM     27  N   UNL     1      43.797  19.021  20.594  0.00  0.00    -0.383 N 
ATOM     28  H   UNL     1      44.047  19.511  21.440  0.00  0.00    +0.423 HD
ATOM     29  C   UNL     1      42.386  19.278  20.275  0.00  0.00    +0.323 C 
ATOM     30  C   UNL     1      44.645  19.485  19.487  0.00  0.00    +0.170 C 
ATOM     31  C   UNL     1      44.231  20.900  19.075  0.00  0.00    +0.093 C 
ATOM     32  C   UNL     1      46.100  19.493  19.957  0.00  0.00    +0.135 C 
ATOM     33  C   UNL     1      46.445  18.161  20.572  0.00  0.00    -0.022 A 
ENDROOT
BRANCH  16  15
ATOM      1  C   UNL     1      48.544  19.982  22.505  0.00  0.00    +0.093 C 
ATOM      2  C   UNL     1      49.217  19.825  21.166  0.00  0.00    +0.005 A 
ATOM      3  C   UNL     1      50.208  20.721  20.787  0.00  0.00    -0.112 A 
ATOM      4  C   UNL     1      50.841  20.603  19.568  0.00  0.00    +0.190 A 
ATOM      7  C   UNL     1      50.483  19.560  18.691  0.00  0.00    -0.105 A 
ATOM      8  C   UNL     1      49.475  18.642  19.072  0.00  0.00    +0.048 A 
ATOM      9  C   UNL     1      49.120  17.604  18.198  0.00  0.00    -0.050 A 
ATOM     10  C   UNL     1      49.745  17.484  16.994  0.00  0.00    +0.080 A 
ATOM     11  C   UNL     1      50.738  18.379  16.610  0.00  0.00    -0.111 A 
ATOM     12  C   UNL     1      51.113  19.413  17.440  0.00  0.00    +0.178 A 
ATOM     15  C   UNL     1      48.845  18.785  20.332  0.00  0.00    -0.110 A 
BRANCH   4   5
ATOM      5  O   UNL     1      51.807  21.489  19.214  0.00  0.00    -0.287 OA
ATOM      6  C   UNL     1      52.696  21.927  20.245  0.00  0.00    +0.245 C 
ENDBRANCH   4   5
BRANCH  12  13
ATOM     13  O   UNL     1      52.084  20.282  17.055  0.00  0.00    -0.289 OA
ATOM     14  C   UNL     1      52.154  20.603  15.665  0.00  0.00    +0.245 C 
ENDBRANCH  12  13
ENDBRANCH  16  15
BRANCH  17  18
ATOM     18  O   UNL     1      49.454  16.293  21.508  0.00  0.00    -0.292 OA
ATOM     19  C   UNL     1      49.935  15.126  20.840  0.00  0.00    +0.254 C 
ENDBRANCH  17  18
BRANCH  21  22
ATOM     22  O   UNL     1      44.854  15.182  21.916  0.00  0.00    -0.491 OA
ATOM     23  H   UNL     1      43.992  15.593  22.068  0.00  0.00    +0.401 HD
ENDBRANCH  21  22
TORSDOF 5
ENDMDL
MODEL 7
REMARK VINA RESULT:      -5.3      4.281      7.969
REMARK  Name = ZINC95486165
REMARK  12 active torsions:
REMARK  status: ('A' for Active; 'I' for Inactive)
REMARK    1  A    between atoms: C1_1  and  C2_2
REMARK    2  A    between atoms: C4_4  and  O4_32
REMARK    3  A    between atoms: C7_7  and  C8_8
REMARK    4  A    between atoms: C9_9  and  O2_24
REMARK    5  A    between atoms: C11_11  and  O1_23
REMARK    6  A    between atoms: C15_15  and  C19_22
REMARK    7  A    between atoms: N1_17  and  C18_21
REMARK    8  A    between atoms: C16_18  and  C17_20
REMARK    9  A    between atoms: O2_24  and  C20_25
REMARK   10  A    between atoms: C24_29  and  O3_30
REMARK   11  A    between atoms: O3_30  and  C25_31
REMARK   12  A    between atoms: O4_32  and  C26_33
REMARK                            x       y       z     vdW  Elec       q    Type
REMARK                         _______ _______ _______ _____ _____    ______ ____
ROOT
ATOM     16  C   UNL     1      50.269  19.101  19.622  0.00  0.00    -0.050 A 
ATOM     17  C   UNL     1      51.182  19.658  18.721  0.00  0.00    +0.187 A 
ATOM     20  C   UNL     1      52.330  18.959  18.393  0.00  0.00    -0.085 A 
ATOM     21  C   UNL     1      52.568  17.715  18.955  0.00  0.00    +0.183 A 
ATOM     24  C   UNL     1      51.660  17.157  19.852  0.00  0.00    -0.194 A 
ATOM     25  C   UNL     1      51.965  15.800  20.430  0.00  0.00    +0.240 C 
ATOM     26  C   UNL     1      53.453  15.721  20.774  0.00  0.00    +0.089 C 
ATOM     27  N   UNL     1      51.184  15.576  21.656  0.00  0.00    -0.383 N 
ATOM     28  H   UNL     1      51.476  16.223  22.373  0.00  0.00    +0.423 HD
ATOM     29  C   UNL     1      51.389  14.198  22.120  0.00  0.00    +0.323 C 
ATOM     30  C   UNL     1      49.761  15.788  21.351  0.00  0.00    +0.170 C 
ATOM     31  C   UNL     1      48.902  15.266  22.505  0.00  0.00    +0.093 C 
ATOM     32  C   UNL     1      49.519  17.286  21.167  0.00  0.00    +0.135 C 
ATOM     33  C   UNL     1      50.519  17.849  20.191  0.00  0.00    -0.022 A 
ENDROOT
BRANCH  16  15
ATOM      1  C   UNL     1      50.366  21.113  21.672  0.00  0.00    +0.093 C 
ATOM      2  C   UNL     1      49.070  20.813  20.964  0.00  0.00    +0.005 A 
ATOM      3  C   UNL     1      47.922  21.518  21.304  0.00  0.00    -0.112 A 
ATOM      4  C   UNL     1      46.723  21.266  20.674  0.00  0.00    +0.190 A 
ATOM      7  C   UNL     1      46.653  20.279  19.671  0.00  0.00    -0.105 A 
ATOM      8  C   UNL     1      47.818  19.557  19.319  0.00  0.00    +0.048 A 
ATOM      9  C   UNL     1      47.747  18.575  18.319  0.00  0.00    -0.050 A 
ATOM     10  C   UNL     1      46.563  18.324  17.694  0.00  0.00    +0.080 A 
ATOM     11  C   UNL     1      45.411  19.028  18.032  0.00  0.00    -0.111 A 
ATOM     12  C   UNL     1      45.441  19.999  19.009  0.00  0.00    +0.178 A 
ATOM     15  C   UNL     1      49.038  19.841  19.979  0.00  0.00    -0.110 A 
BRANCH   4   5
ATOM      5  O   UNL     1      45.611  21.965  21.020  0.00  0.00    -0.287 OA
ATOM      6  C   UNL     1      45.738  23.387  21.096  0.00  0.00    +0.245 C 
ENDBRANCH   4   5
BRANCH  12  13
ATOM     13  O   UNL     1      44.311  20.681  19.331  0.00  0.00    -0.289 OA
ATOM     14  C   UNL     1      43.075  19.973  19.231  0.00  0.00    +0.245 C 
ENDBRANCH  12  13
ENDBRANCH  16  15
BRANCH  17  18
ATOM     18  O   UNL     1      50.942  20.876  18.171  0.00  0.00    -0.292 OA
ATOM     19  C   UNL     1      51.446  21.104  16.854  0.00  0.00    +0.254 C 
ENDBRANCH  17  18
BRANCH  21  22
ATOM     22  O   UNL     1      53.697  17.033  18.628  0.00  0.00    -0.491 OA
ATOM     23  H   UNL     1      54.495  17.580  18.609  0.00  0.00    +0.401 HD
ENDBRANCH  21  22
TORSDOF 5
ENDMDL
MODEL 8
REMARK VINA RESULT:      -5.2      2.462      3.305
REMARK  Name = ZINC95486165
REMARK  12 active torsions:
REMARK  status: ('A' for Active; 'I' for Inactive)
REMARK    1  A    between atoms: C1_1  and  C2_2
REMARK    2  A    between atoms: C4_4  and  O4_32
REMARK    3  A    between atoms: C7_7  and  C8_8
REMARK    4  A    between atoms: C9_9  and  O2_24
REMARK    5  A    between atoms: C11_11  and  O1_23
REMARK    6  A    between atoms: C15_15  and  C19_22
REMARK    7  A    between atoms: N1_17  and  C18_21
REMARK    8  A    between atoms: C16_18  and  C17_20
REMARK    9  A    between atoms: O2_24  and  C20_25
REMARK   10  A    between atoms: C24_29  and  O3_30
REMARK   11  A    between atoms: O3_30  and  C25_31
REMARK   12  A    between atoms: O4_32  and  C26_33
REMARK                            x       y       z     vdW  Elec       q    Type
REMARK                         _______ _______ _______ _____ _____    ______ ____
ROOT
ATOM     16  C   UNL     1      46.822  18.829  19.729  0.00  0.00    -0.050 A 
ATOM     17  C   UNL     1      47.423  19.875  19.021  0.00  0.00    +0.187 A 
ATOM     20  C   UNL     1      46.690  21.011  18.728  0.00  0.00    -0.085 A 
ATOM     21  C   UNL     1      45.369  21.107  19.136  0.00  0.00    +0.183 A 
ATOM     24  C   UNL     1      44.768  20.068  19.843  0.00  0.00    -0.194 A 
ATOM     25  C   UNL     1      43.331  20.226  20.266  0.00  0.00    +0.240 C 
ATOM     26  C   UNL     1      42.538  20.875  19.131  0.00  0.00    +0.089 C 
ATOM     27  N   UNL     1      42.737  18.917  20.570  0.00  0.00    -0.383 N 
ATOM     28  H   UNL     1      42.688  18.358  19.731  0.00  0.00    +0.423 HD
ATOM     29  C   UNL     1      41.387  19.107  21.116  0.00  0.00    +0.323 C 
ATOM     30  C   UNL     1      43.580  18.237  21.565  0.00  0.00    +0.170 C 
ATOM     31  C   UNL     1      42.838  17.024  22.130  0.00  0.00    +0.093 C 
ATOM     32  C   UNL     1      44.869  17.779  20.881  0.00  0.00    +0.135 C 
ATOM     33  C   UNL     1      45.487  18.931  20.132  0.00  0.00    -0.022 A 
ENDROOT
BRANCH  16  15
ATOM      1  C   UNL     1      48.320  18.699  22.179  0.00  0.00    +0.093 C 
ATOM      2  C   UNL     1      48.324  17.533  21.224  0.00  0.00    +0.005 A 
ATOM      3  C   UNL     1      49.052  16.393  21.537  0.00  0.00    -0.112 A 
ATOM      4  C   UNL     1      49.075  15.311  20.683  0.00  0.00    +0.190 A 
ATOM      7  C   UNL     1      48.352  15.356  19.475  0.00  0.00    -0.105 A 
ATOM      8  C   UNL     1      47.608  16.516  19.149  0.00  0.00    +0.048 A 
ATOM      9  C   UNL     1      46.888  16.560  17.946  0.00  0.00    -0.050 A 
ATOM     10  C   UNL     1      46.908  15.492  17.101  0.00  0.00    +0.080 A 
ATOM     11  C   UNL     1      47.636  14.347  17.411  0.00  0.00    -0.111 A 
ATOM     12  C   UNL     1      48.356  14.266  18.583  0.00  0.00    +0.178 A 
ATOM     15  C   UNL     1      47.598  17.610  20.048  0.00  0.00    -0.110 A 
BRANCH   4   5
ATOM      5  O   UNL     1      49.793  14.204  21.005  0.00  0.00    -0.287 OA
ATOM      6  C   UNL     1      49.657  13.709  22.339  0.00  0.00    +0.245 C 
ENDBRANCH   4   5
BRANCH  12  13
ATOM     13  O   UNL     1      49.064  13.144  18.876  0.00  0.00    -0.289 OA
ATOM     14  C   UNL     1      48.380  11.896  18.754  0.00  0.00    +0.245 C 
ENDBRANCH  12  13
ENDBRANCH  16  15
BRANCH  17  18
ATOM     18  O   UNL     1      48.718  19.776  18.626  0.00  0.00    -0.292 OA
ATOM     19  C   UNL     1      49.621  20.773  19.107  0.00  0.00    +0.254 C 
ENDBRANCH  17  18
BRANCH  21  22
ATOM     22  O   UNL     1      44.655  22.227  18.846  0.00  0.00    -0.491 OA
ATOM     23  H   UNL     1      43.744  22.207  19.171  0.00  0.00    +0.401 HD
ENDBRANCH  21  22
TORSDOF 5
ENDMDL
MODEL 9
REMARK VINA RESULT:      -5.1      4.307      8.100
REMARK  Name = ZINC95486165
REMARK  12 active torsions:
REMARK  status: ('A' for Active; 'I' for Inactive)
REMARK    1  A    between atoms: C1_1  and  C2_2
REMARK    2  A    between atoms: C4_4  and  O4_32
REMARK    3  A    between atoms: C7_7  and  C8_8
REMARK    4  A    between atoms: C9_9  and  O2_24
REMARK    5  A    between atoms: C11_11  and  O1_23
REMARK    6  A    between atoms: C15_15  and  C19_22
REMARK    7  A    between atoms: N1_17  and  C18_21
REMARK    8  A    between atoms: C16_18  and  C17_20
REMARK    9  A    between atoms: O2_24  and  C20_25
REMARK   10  A    between atoms: C24_29  and  O3_30
REMARK   11  A    between atoms: O3_30  and  C25_31
REMARK   12  A    between atoms: O4_32  and  C26_33
REMARK                            x       y       z     vdW  Elec       q    Type
REMARK                         _______ _______ _______ _____ _____    ______ ____
ROOT
ATOM     16  C   UNL     1      49.898  18.381  18.838  0.00  0.00    -0.050 A 
ATOM     17  C   UNL     1      50.893  19.016  18.088  0.00  0.00    +0.187 A 
ATOM     20  C   UNL     1      52.172  18.489  18.065  0.00  0.00    -0.085 A 
ATOM     21  C   UNL     1      52.459  17.339  18.783  0.00  0.00    +0.183 A 
ATOM     24  C   UNL     1      51.470  16.703  19.530  0.00  0.00    -0.194 A 
ATOM     25  C   UNL     1      51.834  15.454  20.287  0.00  0.00    +0.240 C 
ATOM     26  C   UNL     1      53.212  15.635  20.927  0.00  0.00    +0.089 C 
ATOM     27  N   UNL     1      50.852  15.189  21.348  0.00  0.00    -0.383 N 
ATOM     28  H   UNL     1      50.889  15.920  22.042  0.00  0.00    +0.423 HD
ATOM     29  C   UNL     1      51.147  13.895  21.976  0.00  0.00    +0.323 C 
ATOM     30  C   UNL     1      49.510  15.151  20.746  0.00  0.00    +0.170 C 
ATOM     31  C   UNL     1      48.509  14.577  21.750  0.00  0.00    +0.093 C 
ATOM     32  C   UNL     1      49.102  16.577  20.372  0.00  0.00    +0.135 C 
ATOM     33  C   UNL     1      50.197  17.225  19.565  0.00  0.00    -0.022 A 
ENDROOT
BRANCH  16  15
ATOM      1  C   UNL     1      47.927  17.401  16.990  0.00  0.00    +0.093 C 
ATOM      2  C   UNL     1      47.567  18.476  17.984  0.00  0.00    +0.005 A 
ATOM      3  C   UNL     1      46.276  18.987  18.006  0.00  0.00    -0.112 A 
ATOM      4  C   UNL     1      45.918  19.969  18.903  0.00  0.00    +0.190 A 
ATOM      7  C   UNL     1      46.870  20.467  19.814  0.00  0.00    -0.105 A 
ATOM      8  C   UNL     1      48.189  19.952  19.797  0.00  0.00    +0.048 A 
ATOM      9  C   UNL     1      49.136  20.448  20.705  0.00  0.00    -0.050 A 
ATOM     10  C   UNL     1      48.785  21.418  21.593  0.00  0.00    +0.080 A 
ATOM     11  C   UNL     1      47.492  21.932  21.619  0.00  0.00    -0.111 A 
ATOM     12  C   UNL     1      46.534  21.471  20.743  0.00  0.00    +0.178 A 
ATOM     15  C   UNL     1      48.527  18.938  18.868  0.00  0.00    -0.110 A 
BRANCH   4   5
ATOM      5  O   UNL     1      44.651  20.457  18.910  0.00  0.00    -0.287 OA
ATOM      6  C   UNL     1      43.596  19.520  19.146  0.00  0.00    +0.245 C 
ENDBRANCH   4   5
BRANCH  12  13
ATOM     13  O   UNL     1      45.274  21.980  20.776  0.00  0.00    -0.289 OA
ATOM     14  C   UNL     1      45.149  23.388  20.981  0.00  0.00    +0.245 C 
ENDBRANCH  12  13
ENDBRANCH  16  15
BRANCH  17  18
ATOM     18  O   UNL     1      50.605  20.142  17.385  0.00  0.00    -0.292 OA
ATOM     19  C   UNL     1      51.689  20.776  16.704  0.00  0.00    +0.254 C 
ENDBRANCH  17  18
BRANCH  21  22
ATOM     22  O   UNL     1      53.717  16.825  18.755  0.00  0.00    -0.491 OA
ATOM     23  H   UNL     1      53.945  16.301  19.536  0.00  0.00    +0.401 HD
ENDBRANCH  21  22
TORSDOF 5
ENDMDL
