MODEL 1
REMARK VINA RESULT:      -5.9      0.000      0.000
REMARK  Name = ZINC95485993
REMARK  12 active torsions:
REMARK  status: ('A' for Active; 'I' for Inactive)
REMARK    1  A    between atoms: C1_1  and  C2_2
REMARK    2  A    between atoms: C6_8  and  C25_33
REMARK    3  A    between atoms: C6_8  and  C26_34
REMARK    4  A    between atoms: C7_9  and  O3_32
REMARK    5  A    between atoms: C8_11  and  C21_28
REMARK    6  A    between atoms: C8_11  and  C22_29
REMARK    7  A    between atoms: C9_12  and  O1_17
REMARK    8  A    between atoms: O1_17  and  C12_18
REMARK    9  A    between atoms: C12_18  and  C13_20
REMARK   10  A    between atoms: C14_21  and  C15_22
REMARK   11  A    between atoms: C22_29  and  C23_30
REMARK   12  A    between atoms: C22_29  and  C24_31
REMARK                            x       y       z     vdW  Elec       q    Type
REMARK                         _______ _______ _______ _____ _____    ______ ____
ROOT
ATOM      1  C   UNL     1      44.909  21.474  19.384  0.00  0.00    +0.018 C 
ATOM      2  C   UNL     1      44.821  19.987  19.726  0.00  0.00    -0.024 C 
ATOM      3  C   UNL     1      44.988  19.130  18.455  0.00  0.00    +0.017 C 
ATOM      4  C   UNL     1      45.455  17.753  19.007  0.00  0.00    +0.002 C 
ATOM      5  C   UNL     1      46.143  17.003  17.927  0.00  0.00    +0.029 C 
ATOM      6  C   UNL     1      46.721  15.647  18.193  0.00  0.00    -0.075 C 
ATOM      7  C   UNL     1      45.698  14.780  18.936  0.00  0.00    +0.027 C 
ATOM      8  C   UNL     1      46.922  14.971  16.810  0.00  0.00    +0.016 C 
ATOM      9  C   UNL     1      48.040  15.609  18.881  0.00  0.00    +0.193 C 
ATOM     12  C   UNL     1      48.225  16.388  20.155  0.00  0.00    -0.032 C 
ATOM     16  C   UNL     1      47.653  15.608  21.342  0.00  0.00    +0.048 C 
ATOM     17  C   UNL     1      47.747  17.792  20.201  0.00  0.00    +0.211 C 
ATOM     29  C   UNL     1      46.279  18.080  20.230  0.00  0.00    -0.022 C 
ATOM     30  C   UNL     1      46.010  19.550  20.619  0.00  0.00    +0.015 C 
ENDROOT
BRANCH  12  13
ATOM     13  C   UNL     1      49.754  16.460  20.398  0.00  0.00    -0.028 C 
ATOM     14  C   UNL     1      50.487  15.804  19.226  0.00  0.00    +0.031 C 
ATOM     15  C   UNL     1      50.100  15.721  21.692  0.00  0.00    +0.016 C 
ENDBRANCH  12  13
BRANCH   9  10
ATOM     10  O   UNL     1      48.376  14.233  19.138  0.00  0.00    -0.559 OA
ATOM     11  H   UNL     1      47.625  13.628  19.087  0.00  0.00    +0.369 HD
ENDBRANCH   9  10
BRANCH  17  18
ATOM     18  O   UNL     1      48.326  18.510  19.107  0.00  0.00    -0.339 OA
BRANCH  18  19
ATOM     19  C   UNL     1      48.802  19.745  19.367  0.00  0.00    +0.486 C 
ATOM     28  O   UNL     1      48.273  20.719  18.864  0.00  0.00    -0.489 OA
BRANCH  19  20
ATOM     20  C   UNL     1      49.954  19.914  20.252  0.00  0.00    -0.055 C 
ATOM     21  C   UNL     1      51.204  19.851  19.751  0.00  0.00    +0.140 C 
BRANCH  21  22
ATOM     22  C   UNL     1      51.418  19.902  18.296  0.00  0.00    -0.082 A 
ATOM     23  C   UNL     1      51.418  21.130  17.628  0.00  0.00    +0.064 A 
ATOM     24  C   UNL     1      51.620  21.170  16.265  0.00  0.00    -0.008 A 
ATOM     25  C   UNL     1      51.820  19.997  15.557  0.00  0.00    +0.015 A 
ATOM     26  C   UNL     1      51.821  18.777  16.210  0.00  0.00    -0.009 A 
ATOM     27  C   UNL     1      51.627  18.721  17.574  0.00  0.00    +0.027 A 
ENDBRANCH  21  22
ENDBRANCH  19  20
ENDBRANCH  18  19
ENDBRANCH  17  18
TORSDOF 6
ENDMDL
MODEL 2
REMARK VINA RESULT:      -5.8      1.518      4.169
REMARK  Name = ZINC95485993
REMARK  12 active torsions:
REMARK  status: ('A' for Active; 'I' for Inactive)
REMARK    1  A    between atoms: C1_1  and  C2_2
REMARK    2  A    between atoms: C6_8  and  C25_33
REMARK    3  A    between atoms: C6_8  and  C26_34
REMARK    4  A    between atoms: C7_9  and  O3_32
REMARK    5  A    between atoms: C8_11  and  C21_28
REMARK    6  A    between atoms: C8_11  and  C22_29
REMARK    7  A    between atoms: C9_12  and  O1_17
REMARK    8  A    between atoms: O1_17  and  C12_18
REMARK    9  A    between atoms: C12_18  and  C13_20
REMARK   10  A    between atoms: C14_21  and  C15_22
REMARK   11  A    between atoms: C22_29  and  C23_30
REMARK   12  A    between atoms: C22_29  and  C24_31
REMARK                            x       y       z     vdW  Elec       q    Type
REMARK                         _______ _______ _______ _____ _____    ______ ____
ROOT
ATOM      1  C   UNL     1      52.224  19.796  21.915  0.00  0.00    +0.018 C 
ATOM      2  C   UNL     1      50.724  19.815  22.206  0.00  0.00    -0.024 C 
ATOM      3  C   UNL     1      50.000  20.785  21.250  0.00  0.00    +0.017 C 
ATOM      4  C   UNL     1      48.533  20.272  21.257  0.00  0.00    +0.002 C 
ATOM      5  C   UNL     1      47.844  20.746  20.032  0.00  0.00    +0.029 C 
ATOM      6  C   UNL     1      46.418  20.372  19.769  0.00  0.00    -0.075 C 
ATOM      7  C   UNL     1      45.576  20.603  21.029  0.00  0.00    +0.027 C 
ATOM      8  C   UNL     1      45.883  21.378  18.713  0.00  0.00    +0.016 C 
ATOM      9  C   UNL     1      46.177  19.011  19.219  0.00  0.00    +0.193 C 
ATOM     12  C   UNL     1      46.790  17.822  19.910  0.00  0.00    -0.032 C 
ATOM     16  C   UNL     1      45.942  17.417  21.118  0.00  0.00    +0.048 C 
ATOM     17  C   UNL     1      48.219  17.891  20.302  0.00  0.00    +0.211 C 
ATOM     29  C   UNL     1      48.642  18.775  21.432  0.00  0.00    -0.022 C 
ATOM     30  C   UNL     1      50.079  18.442  21.889  0.00  0.00    +0.015 C 
ENDROOT
BRANCH  12  13
ATOM     13  C   UNL     1      46.686  16.643  18.911  0.00  0.00    -0.028 C 
ATOM     14  C   UNL     1      46.235  17.169  17.547  0.00  0.00    +0.031 C 
ATOM     15  C   UNL     1      45.667  15.625  19.427  0.00  0.00    +0.016 C 
ENDBRANCH  12  13
BRANCH   9  10
ATOM     10  O   UNL     1      44.755  18.802  19.133  0.00  0.00    -0.559 OA
ATOM     11  H   UNL     1      44.500  18.069  18.557  0.00  0.00    +0.369 HD
ENDBRANCH   9  10
BRANCH  17  18
ATOM     18  O   UNL     1      48.995  18.231  19.148  0.00  0.00    -0.339 OA
BRANCH  18  19
ATOM     19  C   UNL     1      49.851  17.297  18.686  0.00  0.00    +0.486 C 
ATOM     28  O   UNL     1      49.516  16.563  17.775  0.00  0.00    -0.489 OA
BRANCH  19  20
ATOM     20  C   UNL     1      51.181  17.166  19.280  0.00  0.00    -0.055 C 
ATOM     21  C   UNL     1      52.215  17.873  18.779  0.00  0.00    +0.140 C 
BRANCH  21  22
ATOM     22  C   UNL     1      51.966  18.978  17.840  0.00  0.00    -0.082 A 
ATOM     23  C   UNL     1      52.055  18.762  16.462  0.00  0.00    +0.064 A 
ATOM     24  C   UNL     1      51.819  19.802  15.588  0.00  0.00    -0.008 A 
ATOM     25  C   UNL     1      51.496  21.058  16.073  0.00  0.00    +0.015 A 
ATOM     26  C   UNL     1      51.406  21.280  17.436  0.00  0.00    -0.009 A 
ATOM     27  C   UNL     1      51.632  20.248  18.322  0.00  0.00    +0.027 A 
ENDBRANCH  21  22
ENDBRANCH  19  20
ENDBRANCH  18  19
ENDBRANCH  17  18
TORSDOF 6
ENDMDL
MODEL 3
REMARK VINA RESULT:      -5.8      1.635      4.245
REMARK  Name = ZINC95485993
REMARK  12 active torsions:
REMARK  status: ('A' for Active; 'I' for Inactive)
REMARK    1  A    between atoms: C1_1  and  C2_2
REMARK    2  A    between atoms: C6_8  and  C25_33
REMARK    3  A    between atoms: C6_8  and  C26_34
REMARK    4  A    between atoms: C7_9  and  O3_32
REMARK    5  A    between atoms: C8_11  and  C21_28
REMARK    6  A    between atoms: C8_11  and  C22_29
REMARK    7  A    between atoms: C9_12  and  O1_17
REMARK    8  A    between atoms: O1_17  and  C12_18
REMARK    9  A    between atoms: C12_18  and  C13_20
REMARK   10  A    between atoms: C14_21  and  C15_22
REMARK   11  A    between atoms: C22_29  and  C23_30
REMARK   12  A    between atoms: C22_29  and  C24_31
REMARK                            x       y       z     vdW  Elec       q    Type
REMARK                         _______ _______ _______ _____ _____    ______ ____
ROOT
ATOM      1  C   UNL     1      47.747  13.388  16.341  0.00  0.00    +0.018 C 
ATOM      2  C   UNL     1      46.625  14.194  16.994  0.00  0.00    -0.024 C 
ATOM      3  C   UNL     1      46.772  14.179  18.530  0.00  0.00    +0.017 C 
ATOM      4  C   UNL     1      45.986  15.442  18.980  0.00  0.00    +0.002 C 
ATOM      5  C   UNL     1      46.454  15.853  20.327  0.00  0.00    +0.029 C 
ATOM      6  C   UNL     1      45.880  17.065  20.993  0.00  0.00    -0.075 C 
ATOM      7  C   UNL     1      44.350  17.039  20.897  0.00  0.00    +0.027 C 
ATOM      8  C   UNL     1      46.211  16.938  22.505  0.00  0.00    +0.016 C 
ATOM      9  C   UNL     1      46.412  18.382  20.551  0.00  0.00    +0.193 C 
ATOM     12  C   UNL     1      46.446  18.703  19.081  0.00  0.00    -0.032 C 
ATOM     16  C   UNL     1      45.067  19.171  18.608  0.00  0.00    +0.048 C 
ATOM     17  C   UNL     1      46.975  17.680  18.146  0.00  0.00    +0.211 C 
ATOM     29  C   UNL     1      46.182  16.444  17.865  0.00  0.00    -0.022 C 
ATOM     30  C   UNL     1      46.736  15.697  16.633  0.00  0.00    +0.015 C 
ENDROOT
BRANCH  12  13
ATOM     13  C   UNL     1      47.379  19.930  18.930  0.00  0.00    -0.028 C 
ATOM     14  C   UNL     1      48.247  20.068  20.182  0.00  0.00    +0.031 C 
ATOM     15  C   UNL     1      46.535  21.194  18.753  0.00  0.00    +0.016 C 
ENDBRANCH  12  13
BRANCH   9  10
ATOM     10  O   UNL     1      45.672  19.418  21.224  0.00  0.00    -0.559 OA
ATOM     11  H   UNL     1      45.426  20.159  20.654  0.00  0.00    +0.369 HD
ENDBRANCH   9  10
BRANCH  17  18
ATOM     18  O   UNL     1      48.280  17.289  18.586  0.00  0.00    -0.339 OA
BRANCH  18  19
ATOM     19  C   UNL     1      49.259  17.267  17.658  0.00  0.00    +0.486 C 
ATOM     28  O   UNL     1      49.059  17.734  16.553  0.00  0.00    -0.489 OA
BRANCH  19  20
ATOM     20  C   UNL     1      50.561  16.683  17.981  0.00  0.00    -0.055 C 
ATOM     21  C   UNL     1      51.693  17.340  17.655  0.00  0.00    +0.140 C 
BRANCH  21  22
ATOM     22  C   UNL     1      51.634  18.752  17.243  0.00  0.00    -0.082 A 
ATOM     23  C   UNL     1      51.315  19.743  18.177  0.00  0.00    +0.064 A 
ATOM     24  C   UNL     1      51.262  21.063  17.784  0.00  0.00    -0.008 A 
ATOM     25  C   UNL     1      51.522  21.409  16.469  0.00  0.00    +0.015 A 
ATOM     26  C   UNL     1      51.838  20.434  15.539  0.00  0.00    -0.009 A 
ATOM     27  C   UNL     1      51.901  19.110  15.918  0.00  0.00    +0.027 A 
ENDBRANCH  21  22
ENDBRANCH  19  20
ENDBRANCH  18  19
ENDBRANCH  17  18
TORSDOF 6
ENDMDL
MODEL 4
REMARK VINA RESULT:      -5.7      1.757      6.017
REMARK  Name = ZINC95485993
REMARK  12 active torsions:
REMARK  status: ('A' for Active; 'I' for Inactive)
REMARK    1  A    between atoms: C1_1  and  C2_2
REMARK    2  A    between atoms: C6_8  and  C25_33
REMARK    3  A    between atoms: C6_8  and  C26_34
REMARK    4  A    between atoms: C7_9  and  O3_32
REMARK    5  A    between atoms: C8_11  and  C21_28
REMARK    6  A    between atoms: C8_11  and  C22_29
REMARK    7  A    between atoms: C9_12  and  O1_17
REMARK    8  A    between atoms: O1_17  and  C12_18
REMARK    9  A    between atoms: C12_18  and  C13_20
REMARK   10  A    between atoms: C14_21  and  C15_22
REMARK   11  A    between atoms: C22_29  and  C23_30
REMARK   12  A    between atoms: C22_29  and  C24_31
REMARK                            x       y       z     vdW  Elec       q    Type
REMARK                         _______ _______ _______ _____ _____    ______ ____
ROOT
ATOM      1  C   UNL     1      45.387  20.353  20.894  0.00  0.00    +0.018 C 
ATOM      2  C   UNL     1      46.697  21.046  20.520  0.00  0.00    -0.024 C 
ATOM      3  C   UNL     1      47.842  20.567  21.436  0.00  0.00    +0.017 C 
ATOM      4  C   UNL     1      49.120  20.868  20.604  0.00  0.00    +0.002 C 
ATOM      5  C   UNL     1      50.233  20.017  21.095  0.00  0.00    +0.029 C 
ATOM      6  C   UNL     1      51.582  20.084  20.449  0.00  0.00    -0.075 C 
ATOM      7  C   UNL     1      52.007  21.548  20.277  0.00  0.00    +0.027 C 
ATOM      8  C   UNL     1      52.588  19.468  21.458  0.00  0.00    +0.016 C 
ATOM      9  C   UNL     1      51.748  19.336  19.174  0.00  0.00    +0.193 C 
ATOM     12  C   UNL     1      50.753  19.550  18.064  0.00  0.00    -0.032 C 
ATOM     16  C   UNL     1      51.091  20.826  17.288  0.00  0.00    +0.048 C 
ATOM     17  C   UNL     1      49.308  19.535  18.397  0.00  0.00    +0.211 C 
ATOM     29  C   UNL     1      48.706  20.670  19.164  0.00  0.00    -0.022 C 
ATOM     30  C   UNL     1      47.164  20.625  19.103  0.00  0.00    +0.015 C 
ENDROOT
BRANCH  12  13
ATOM     13  C   UNL     1      50.964  18.384  17.066  0.00  0.00    -0.028 C 
ATOM     14  C   UNL     1      51.944  17.373  17.664  0.00  0.00    +0.031 C 
ATOM     15  C   UNL     1      51.534  18.931  15.756  0.00  0.00    +0.016 C 
ENDBRANCH  12  13
BRANCH   9  10
ATOM     10  O   UNL     1      53.065  19.604  18.659  0.00  0.00    -0.559 OA
ATOM     11  H   UNL     1      53.635  20.091  19.270  0.00  0.00    +0.369 HD
ENDBRANCH   9  10
BRANCH  17  18
ATOM     18  O   UNL     1      49.009  18.316  19.086  0.00  0.00    -0.339 OA
BRANCH  18  19
ATOM     19  C   UNL     1      48.477  17.314  18.356  0.00  0.00    +0.486 C 
ATOM     28  O   UNL     1      48.849  16.170  18.533  0.00  0.00    -0.489 OA
BRANCH  19  20
ATOM     20  C   UNL     1      47.452  17.603  17.353  0.00  0.00    -0.055 C 
ATOM     21  C   UNL     1      46.236  17.026  17.447  0.00  0.00    +0.140 C 
BRANCH  21  22
ATOM     22  C   UNL     1      45.838  16.345  18.689  0.00  0.00    -0.082 A 
ATOM     23  C   UNL     1      45.452  17.090  19.807  0.00  0.00    +0.064 A 
ATOM     24  C   UNL     1      45.079  16.444  20.967  0.00  0.00    -0.008 A 
ATOM     25  C   UNL     1      45.089  15.061  21.026  0.00  0.00    +0.015 A 
ATOM     26  C   UNL     1      45.470  14.316  19.925  0.00  0.00    -0.009 A 
ATOM     27  C   UNL     1      45.838  14.947  18.756  0.00  0.00    +0.027 A 
ENDBRANCH  21  22
ENDBRANCH  19  20
ENDBRANCH  18  19
ENDBRANCH  17  18
TORSDOF 6
ENDMDL
MODEL 5
REMARK VINA RESULT:      -5.6      1.828      4.563
REMARK  Name = ZINC95485993
REMARK  12 active torsions:
REMARK  status: ('A' for Active; 'I' for Inactive)
REMARK    1  A    between atoms: C1_1  and  C2_2
REMARK    2  A    between atoms: C6_8  and  C25_33
REMARK    3  A    between atoms: C6_8  and  C26_34
REMARK    4  A    between atoms: C7_9  and  O3_32
REMARK    5  A    between atoms: C8_11  and  C21_28
REMARK    6  A    between atoms: C8_11  and  C22_29
REMARK    7  A    between atoms: C9_12  and  O1_17
REMARK    8  A    between atoms: O1_17  and  C12_18
REMARK    9  A    between atoms: C12_18  and  C13_20
REMARK   10  A    between atoms: C14_21  and  C15_22
REMARK   11  A    between atoms: C22_29  and  C23_30
REMARK   12  A    between atoms: C22_29  and  C24_31
REMARK                            x       y       z     vdW  Elec       q    Type
REMARK                         _______ _______ _______ _____ _____    ______ ____
ROOT
ATOM      1  C   UNL     1      48.488  15.637  17.377  0.00  0.00    +0.018 C 
ATOM      2  C   UNL     1      47.434  16.730  17.211  0.00  0.00    -0.024 C 
ATOM      3  C   UNL     1      46.217  16.450  18.116  0.00  0.00    +0.017 C 
ATOM      4  C   UNL     1      45.561  17.850  18.283  0.00  0.00    +0.002 C 
ATOM      5  C   UNL     1      44.718  17.850  19.505  0.00  0.00    +0.029 C 
ATOM      6  C   UNL     1      43.987  19.089  19.923  0.00  0.00    -0.075 C 
ATOM      7  C   UNL     1      43.257  19.695  18.718  0.00  0.00    +0.027 C 
ATOM      8  C   UNL     1      42.875  18.636  20.907  0.00  0.00    +0.016 C 
ATOM      9  C   UNL     1      44.785  20.126  20.630  0.00  0.00    +0.193 C 
ATOM     12  C   UNL     1      46.076  20.601  20.020  0.00  0.00    -0.032 C 
ATOM     16  C   UNL     1      45.797  21.645  18.935  0.00  0.00    +0.048 C 
ATOM     17  C   UNL     1      47.031  19.588  19.507  0.00  0.00    +0.211 C 
ATOM     29  C   UNL     1      46.712  18.827  18.259  0.00  0.00    -0.022 C 
ATOM     30  C   UNL     1      47.961  18.095  17.723  0.00  0.00    +0.015 C 
ENDROOT
BRANCH  12  13
ATOM     13  C   UNL     1      46.831  21.356  21.143  0.00  0.00    -0.028 C 
ATOM     14  C   UNL     1      46.301  20.905  22.505  0.00  0.00    +0.031 C 
ATOM     15  C   UNL     1      46.610  22.861  20.983  0.00  0.00    +0.016 C 
ENDBRANCH  12  13
BRANCH   9  10
ATOM     10  O   UNL     1      43.941  21.271  20.855  0.00  0.00    -0.559 OA
ATOM     11  H   UNL     1      43.417  21.531  20.085  0.00  0.00    +0.369 HD
ENDBRANCH   9  10
BRANCH  17  18
ATOM     18  O   UNL     1      47.307  18.648  20.551  0.00  0.00    -0.339 OA
BRANCH  18  19
ATOM     19  C   UNL     1      48.604  18.418  20.841  0.00  0.00    +0.486 C 
ATOM     28  O   UNL     1      49.187  17.488  20.317  0.00  0.00    -0.489 OA
BRANCH  19  20
ATOM     20  C   UNL     1      49.308  19.285  21.784  0.00  0.00    -0.055 C 
ATOM     21  C   UNL     1      50.405  19.962  21.387  0.00  0.00    +0.140 C 
BRANCH  21  22
ATOM     22  C   UNL     1      50.730  20.063  19.956  0.00  0.00    -0.082 A 
ATOM     23  C   UNL     1      51.700  19.227  19.395  0.00  0.00    +0.064 A 
ATOM     24  C   UNL     1      51.999  19.326  18.053  0.00  0.00    -0.008 A 
ATOM     25  C   UNL     1      51.342  20.253  17.261  0.00  0.00    +0.015 A 
ATOM     26  C   UNL     1      50.381  21.085  17.808  0.00  0.00    -0.009 A 
ATOM     27  C   UNL     1      50.067  20.993  19.148  0.00  0.00    +0.027 A 
ENDBRANCH  21  22
ENDBRANCH  19  20
ENDBRANCH  18  19
ENDBRANCH  17  18
TORSDOF 6
ENDMDL
MODEL 6
REMARK VINA RESULT:      -5.4      1.629      6.023
REMARK  Name = ZINC95485993
REMARK  12 active torsions:
REMARK  status: ('A' for Active; 'I' for Inactive)
REMARK    1  A    between atoms: C1_1  and  C2_2
REMARK    2  A    between atoms: C6_8  and  C25_33
REMARK    3  A    between atoms: C6_8  and  C26_34
REMARK    4  A    between atoms: C7_9  and  O3_32
REMARK    5  A    between atoms: C8_11  and  C21_28
REMARK    6  A    between atoms: C8_11  and  C22_29
REMARK    7  A    between atoms: C9_12  and  O1_17
REMARK    8  A    between atoms: O1_17  and  C12_18
REMARK    9  A    between atoms: C12_18  and  C13_20
REMARK   10  A    between atoms: C14_21  and  C15_22
REMARK   11  A    between atoms: C22_29  and  C23_30
REMARK   12  A    between atoms: C22_29  and  C24_31
REMARK                            x       y       z     vdW  Elec       q    Type
REMARK                         _______ _______ _______ _____ _____    ______ ____
ROOT
ATOM      1  C   UNL     1      52.052  19.658  15.448  0.00  0.00    +0.018 C 
ATOM      2  C   UNL     1      52.092  19.912  16.954  0.00  0.00    -0.024 C 
ATOM      3  C   UNL     1      50.926  20.826  17.381  0.00  0.00    +0.017 C 
ATOM      4  C   UNL     1      50.756  20.514  18.894  0.00  0.00    +0.002 C 
ATOM      5  C   UNL     1      49.389  20.900  19.322  0.00  0.00    +0.029 C 
ATOM      6  C   UNL     1      48.945  20.681  20.735  0.00  0.00    -0.075 C 
ATOM      7  C   UNL     1      50.017  21.192  21.705  0.00  0.00    +0.027 C 
ATOM      8  C   UNL     1      47.707  21.592  20.957  0.00  0.00    +0.016 C 
ATOM      9  C   UNL     1      48.526  19.300  21.095  0.00  0.00    +0.193 C 
ATOM     12  C   UNL     1      49.440  18.149  20.773  0.00  0.00    -0.032 C 
ATOM     16  C   UNL     1      50.535  18.028  21.836  0.00  0.00    +0.048 C 
ATOM     17  C   UNL     1      50.047  18.085  19.420  0.00  0.00    +0.211 C 
ATOM     29  C   UNL     1      51.119  19.054  19.036  0.00  0.00    -0.022 C 
ATOM     30  C   UNL     1      51.838  18.604  17.746  0.00  0.00    +0.015 C 
ENDROOT
BRANCH  12  13
ATOM     13  C   UNL     1      48.582  16.866  20.907  0.00  0.00    -0.028 C 
ATOM     14  C   UNL     1      47.743  16.946  22.184  0.00  0.00    +0.031 C 
ATOM     15  C   UNL     1      49.499  15.644  20.976  0.00  0.00    +0.016 C 
ENDBRANCH  12  13
BRANCH   9  10
ATOM     10  O   UNL     1      48.237  19.268  22.505  0.00  0.00    -0.559 OA
ATOM     11  H   UNL     1      47.294  19.220  22.713  0.00  0.00    +0.369 HD
ENDBRANCH   9  10
BRANCH  17  18
ATOM     18  O   UNL     1      49.001  18.159  18.445  0.00  0.00    -0.339 OA
BRANCH  18  19
ATOM     19  C   UNL     1      48.860  17.105  17.616  0.00  0.00    +0.486 C 
ATOM     28  O   UNL     1      49.488  16.083  17.821  0.00  0.00    -0.489 OA
BRANCH  19  20
ATOM     20  C   UNL     1      47.953  17.190  16.472  0.00  0.00    -0.055 C 
ATOM     21  C   UNL     1      46.694  16.714  16.574  0.00  0.00    +0.140 C 
BRANCH  21  22
ATOM     22  C   UNL     1      46.138  16.378  17.894  0.00  0.00    -0.082 A 
ATOM     23  C   UNL     1      46.219  15.068  18.378  0.00  0.00    +0.064 A 
ATOM     24  C   UNL     1      45.696  14.762  19.616  0.00  0.00    -0.008 A 
ATOM     25  C   UNL     1      45.091  15.746  20.379  0.00  0.00    +0.015 A 
ATOM     26  C   UNL     1      45.008  17.044  19.908  0.00  0.00    -0.009 A 
ATOM     27  C   UNL     1      45.531  17.368  18.674  0.00  0.00    +0.027 A 
ENDBRANCH  21  22
ENDBRANCH  19  20
ENDBRANCH  18  19
ENDBRANCH  17  18
TORSDOF 6
ENDMDL
MODEL 7
REMARK VINA RESULT:      -5.4      1.753      5.466
REMARK  Name = ZINC95485993
REMARK  12 active torsions:
REMARK  status: ('A' for Active; 'I' for Inactive)
REMARK    1  A    between atoms: C1_1  and  C2_2
REMARK    2  A    between atoms: C6_8  and  C25_33
REMARK    3  A    between atoms: C6_8  and  C26_34
REMARK    4  A    between atoms: C7_9  and  O3_32
REMARK    5  A    between atoms: C8_11  and  C21_28
REMARK    6  A    between atoms: C8_11  and  C22_29
REMARK    7  A    between atoms: C9_12  and  O1_17
REMARK    8  A    between atoms: O1_17  and  C12_18
REMARK    9  A    between atoms: C12_18  and  C13_20
REMARK   10  A    between atoms: C14_21  and  C15_22
REMARK   11  A    between atoms: C22_29  and  C23_30
REMARK   12  A    between atoms: C22_29  and  C24_31
REMARK                            x       y       z     vdW  Elec       q    Type
REMARK                         _______ _______ _______ _____ _____    ______ ____
ROOT
ATOM      1  C   UNL     1      45.386  20.227  20.860  0.00  0.00    +0.018 C 
ATOM      2  C   UNL     1      46.694  20.966  20.581  0.00  0.00    -0.024 C 
ATOM      3  C   UNL     1      47.834  20.392  21.447  0.00  0.00    +0.017 C 
ATOM      4  C   UNL     1      49.118  20.796  20.667  0.00  0.00    +0.002 C 
ATOM      5  C   UNL     1      50.232  19.901  21.066  0.00  0.00    +0.029 C 
ATOM      6  C   UNL     1      51.587  20.052  20.445  0.00  0.00    -0.075 C 
ATOM      7  C   UNL     1      52.002  21.528  20.448  0.00  0.00    +0.027 C 
ATOM      8  C   UNL     1      52.589  19.329  21.386  0.00  0.00    +0.016 C 
ATOM      9  C   UNL     1      51.768  19.458  19.093  0.00  0.00    +0.193 C 
ATOM     12  C   UNL     1      50.782  19.792  18.007  0.00  0.00    -0.032 C 
ATOM     16  C   UNL     1      51.117  21.151  17.387  0.00  0.00    +0.048 C 
ATOM     17  C   UNL     1      49.334  19.729  18.322  0.00  0.00    +0.211 C 
ATOM     29  C   UNL     1      48.717  20.763  19.210  0.00  0.00    -0.022 C 
ATOM     30  C   UNL     1      47.176  20.716  19.130  0.00  0.00    +0.015 C 
ENDROOT
BRANCH  12  13
ATOM     13  C   UNL     1      51.010  18.751  16.882  0.00  0.00    -0.028 C 
ATOM     14  C   UNL     1      51.759  17.544  17.451  0.00  0.00    +0.031 C 
ATOM     15  C   UNL     1      51.839  19.383  15.762  0.00  0.00    +0.016 C 
ENDBRANCH  12  13
BRANCH   9  10
ATOM     10  O   UNL     1      53.088  19.792  18.626  0.00  0.00    -0.559 OA
ATOM     11  H   UNL     1      53.785  19.649  19.280  0.00  0.00    +0.369 HD
ENDBRANCH   9  10
BRANCH  17  18
ATOM     18  O   UNL     1      49.038  18.437  18.862  0.00  0.00    -0.339 OA
BRANCH  18  19
ATOM     19  C   UNL     1      47.994  17.772  18.326  0.00  0.00    +0.486 C 
ATOM     28  O   UNL     1      47.751  17.878  17.139  0.00  0.00    -0.489 OA
BRANCH  19  20
ATOM     20  C   UNL     1      47.154  16.925  19.172  0.00  0.00    -0.055 C 
ATOM     21  C   UNL     1      47.291  15.583  19.128  0.00  0.00    +0.140 C 
BRANCH  21  22
ATOM     22  C   UNL     1      48.458  14.983  18.463  0.00  0.00    -0.082 A 
ATOM     23  C   UNL     1      49.654  14.808  19.165  0.00  0.00    +0.064 A 
ATOM     24  C   UNL     1      50.743  14.244  18.535  0.00  0.00    -0.008 A 
ATOM     25  C   UNL     1      50.655  13.854  17.210  0.00  0.00    +0.015 A 
ATOM     26  C   UNL     1      49.475  14.024  16.508  0.00  0.00    -0.009 A 
ATOM     27  C   UNL     1      48.375  14.580  17.126  0.00  0.00    +0.027 A 
ENDBRANCH  21  22
ENDBRANCH  19  20
ENDBRANCH  18  19
ENDBRANCH  17  18
TORSDOF 6
ENDMDL
MODEL 8
REMARK VINA RESULT:      -5.4      1.856      5.519
REMARK  Name = ZINC95485993
REMARK  12 active torsions:
REMARK  status: ('A' for Active; 'I' for Inactive)
REMARK    1  A    between atoms: C1_1  and  C2_2
REMARK    2  A    between atoms: C6_8  and  C25_33
REMARK    3  A    between atoms: C6_8  and  C26_34
REMARK    4  A    between atoms: C7_9  and  O3_32
REMARK    5  A    between atoms: C8_11  and  C21_28
REMARK    6  A    between atoms: C8_11  and  C22_29
REMARK    7  A    between atoms: C9_12  and  O1_17
REMARK    8  A    between atoms: O1_17  and  C12_18
REMARK    9  A    between atoms: C12_18  and  C13_20
REMARK   10  A    between atoms: C14_21  and  C15_22
REMARK   11  A    between atoms: C22_29  and  C23_30
REMARK   12  A    between atoms: C22_29  and  C24_31
REMARK                            x       y       z     vdW  Elec       q    Type
REMARK                         _______ _______ _______ _____ _____    ______ ____
ROOT
ATOM      1  C   UNL     1      44.203  21.607  20.150  0.00  0.00    +0.018 C 
ATOM      2  C   UNL     1      45.705  21.868  20.044  0.00  0.00    -0.024 C 
ATOM      3  C   UNL     1      46.450  21.231  21.235  0.00  0.00    +0.017 C 
ATOM      4  C   UNL     1      47.902  21.064  20.706  0.00  0.00    +0.002 C 
ATOM      5  C   UNL     1      48.596  20.024  21.505  0.00  0.00    +0.029 C 
ATOM      6  C   UNL     1      50.009  19.640  21.190  0.00  0.00    -0.075 C 
ATOM      7  C   UNL     1      50.866  20.900  21.016  0.00  0.00    +0.027 C 
ATOM      8  C   UNL     1      50.565  18.923  22.450  0.00  0.00    +0.016 C 
ATOM      9  C   UNL     1      50.206  18.708  20.048  0.00  0.00    +0.193 C 
ATOM     12  C   UNL     1      49.565  19.025  18.723  0.00  0.00    -0.032 C 
ATOM     16  C   UNL     1      50.410  20.046  17.956  0.00  0.00    +0.048 C 
ATOM     17  C   UNL     1      48.141  19.441  18.709  0.00  0.00    +0.211 C 
ATOM     29  C   UNL     1      47.752  20.789  19.228  0.00  0.00    -0.022 C 
ATOM     30  C   UNL     1      46.309  21.148  18.811  0.00  0.00    +0.015 C 
ENDROOT
BRANCH  12  13
ATOM     13  C   UNL     1      49.628  17.720  17.891  0.00  0.00    -0.028 C 
ATOM     14  C   UNL     1      49.887  16.534  18.823  0.00  0.00    +0.031 C 
ATOM     15  C   UNL     1      50.761  17.821  16.868  0.00  0.00    +0.016 C 
ENDBRANCH  12  13
BRANCH   9  10
ATOM     10  O   UNL     1      51.621  18.543  19.838  0.00  0.00    -0.559 OA
ATOM     11  H   UNL     1      52.147  18.588  20.648  0.00  0.00    +0.369 HD
ENDBRANCH   9  10
BRANCH  17  18
ATOM     18  O   UNL     1      47.368  18.452  19.396  0.00  0.00    -0.339 OA
BRANCH  18  19
ATOM     19  C   UNL     1      46.217  18.057  18.811  0.00  0.00    +0.486 C 
ATOM     28  O   UNL     1      46.176  17.884  17.608  0.00  0.00    -0.489 OA
BRANCH  19  20
ATOM     20  C   UNL     1      45.022  17.838  19.624  0.00  0.00    -0.055 C 
ATOM     21  C   UNL     1      44.757  16.610  20.115  0.00  0.00    +0.140 C 
BRANCH  21  22
ATOM     22  C   UNL     1      45.794  15.566  20.087  0.00  0.00    -0.082 A 
ATOM     23  C   UNL     1      46.729  15.477  21.122  0.00  0.00    +0.064 A 
ATOM     24  C   UNL     1      47.697  14.495  21.089  0.00  0.00    -0.008 A 
ATOM     25  C   UNL     1      47.745  13.601  20.033  0.00  0.00    +0.015 A 
ATOM     26  C   UNL     1      46.823  13.683  19.005  0.00  0.00    -0.009 A 
ATOM     27  C   UNL     1      45.845  14.655  19.027  0.00  0.00    +0.027 A 
ENDBRANCH  21  22
ENDBRANCH  19  20
ENDBRANCH  18  19
ENDBRANCH  17  18
TORSDOF 6
ENDMDL
MODEL 9
REMARK VINA RESULT:      -5.3      1.546      6.392
REMARK  Name = ZINC95485993
REMARK  12 active torsions:
REMARK  status: ('A' for Active; 'I' for Inactive)
REMARK    1  A    between atoms: C1_1  and  C2_2
REMARK    2  A    between atoms: C6_8  and  C25_33
REMARK    3  A    between atoms: C6_8  and  C26_34
REMARK    4  A    between atoms: C7_9  and  O3_32
REMARK    5  A    between atoms: C8_11  and  C21_28
REMARK    6  A    between atoms: C8_11  and  C22_29
REMARK    7  A    between atoms: C9_12  and  O1_17
REMARK    8  A    between atoms: O1_17  and  C12_18
REMARK    9  A    between atoms: C12_18  and  C13_20
REMARK   10  A    between atoms: C14_21  and  C15_22
REMARK   11  A    between atoms: C22_29  and  C23_30
REMARK   12  A    between atoms: C22_29  and  C24_31
REMARK                            x       y       z     vdW  Elec       q    Type
REMARK                         _______ _______ _______ _____ _____    ______ ____
ROOT
ATOM      1  C   UNL     1      50.756  13.908  17.128  0.00  0.00    +0.018 C 
ATOM      2  C   UNL     1      51.620  15.064  17.630  0.00  0.00    -0.024 C 
ATOM      3  C   UNL     1      51.479  16.287  16.700  0.00  0.00    +0.017 C 
ATOM      4  C   UNL     1      51.897  17.479  17.606  0.00  0.00    +0.002 C 
ATOM      5  C   UNL     1      51.333  18.734  17.050  0.00  0.00    +0.029 C 
ATOM      6  C   UNL     1      51.560  20.042  17.745  0.00  0.00    -0.075 C 
ATOM      7  C   UNL     1      53.041  20.188  18.112  0.00  0.00    +0.027 C 
ATOM      8  C   UNL     1      51.272  21.154  16.701  0.00  0.00    +0.016 C 
ATOM      9  C   UNL     1      50.696  20.329  18.921  0.00  0.00    +0.193 C 
ATOM     12  C   UNL     1      50.581  19.301  20.015  0.00  0.00    -0.032 C 
ATOM     16  C   UNL     1      51.785  19.390  20.955  0.00  0.00    +0.048 C 
ATOM     17  C   UNL     1      50.347  17.886  19.634  0.00  0.00    +0.211 C 
ATOM     29  C   UNL     1      51.443  17.094  18.995  0.00  0.00    -0.022 C 
ATOM     30  C   UNL     1      51.112  15.586  18.997  0.00  0.00    +0.015 C 
ENDROOT
BRANCH  12  13
ATOM     13  C   UNL     1      49.353  19.713  20.865  0.00  0.00    -0.028 C 
ATOM     14  C   UNL     1      48.540  20.766  20.110  0.00  0.00    +0.031 C 
ATOM     15  C   UNL     1      49.828  20.295  22.198  0.00  0.00    +0.016 C 
ENDBRANCH  12  13
BRANCH   9  10
ATOM     10  O   UNL     1      51.129  21.569  19.509  0.00  0.00    -0.559 OA
ATOM     11  H   UNL     1      51.357  22.252  18.864  0.00  0.00    +0.369 HD
ENDBRANCH   9  10
BRANCH  17  18
ATOM     18  O   UNL     1      49.193  17.824  18.788  0.00  0.00    -0.339 OA
BRANCH  18  19
ATOM     19  C   UNL     1      48.295  16.851  19.047  0.00  0.00    +0.486 C 
ATOM     28  O   UNL     1      48.108  16.486  20.193  0.00  0.00    -0.489 OA
BRANCH  19  20
ATOM     20  C   UNL     1      47.546  16.236  17.952  0.00  0.00    -0.055 C 
ATOM     21  C   UNL     1      46.244  16.539  17.773  0.00  0.00    +0.140 C 
BRANCH  21  22
ATOM     22  C   UNL     1      45.650  17.685  18.479  0.00  0.00    -0.082 A 
ATOM     23  C   UNL     1      44.876  17.479  19.625  0.00  0.00    +0.064 A 
ATOM     24  C   UNL     1      44.324  18.559  20.282  0.00  0.00    -0.008 A 
ATOM     25  C   UNL     1      44.533  19.843  19.808  0.00  0.00    +0.015 A 
ATOM     26  C   UNL     1      45.297  20.054  18.675  0.00  0.00    -0.009 A 
ATOM     27  C   UNL     1      45.862  18.986  18.011  0.00  0.00    +0.027 A 
ENDBRANCH  21  22
ENDBRANCH  19  20
ENDBRANCH  18  19
ENDBRANCH  17  18
TORSDOF 6
ENDMDL
