MODEL 1
REMARK VINA RESULT:      -6.0      0.000      0.000
REMARK  Name = ZINC95485903
REMARK  10 active torsions:
REMARK  status: ('A' for Active; 'I' for Inactive)
REMARK    1  A    between atoms: C1_1  and  C2_2
REMARK    2  A    between atoms: C2_2  and  C3_3
REMARK    3  A    between atoms: C2_2  and  C4_4
REMARK    4  A    between atoms: C4_4  and  C5_5
REMARK    5  A    between atoms: C4_4  and  C28_39
REMARK    6  A    between atoms: C4_4  and  O6_42
REMARK    7  A    between atoms: C8_11  and  O2_14
REMARK    8  A    between atoms: C22_31  and  C27_38
REMARK    9  A    between atoms: C25_34  and  O4_37
REMARK   10  A    between atoms: C28_39  and  C29_41
REMARK                            x       y       z     vdW  Elec       q    Type
REMARK                         _______ _______ _______ _____ _____    ______ ____
ROOT
ATOM      9  C   UNL     1      48.000  12.440  17.120  0.00  0.00    +0.189 C 
ATOM     10  C   UNL     1      47.840  13.812  17.754  0.00  0.00    +0.117 C 
ATOM     11  C   UNL     1      47.620  13.346  19.254  0.00  0.00    -0.004 C 
ATOM     12  C   UNL     1      47.396  14.677  19.863  0.00  0.00    -0.149 C 
ATOM     13  C   UNL     1      47.481  15.174  21.286  0.00  0.00    +0.133 C 
ATOM     14  C   UNL     1      46.456  15.327  18.793  0.00  0.00    +0.242 C 
ATOM     15  C   UNL     1      46.875  16.762  18.692  0.00  0.00    -0.039 C 
ATOM     16  C   UNL     1      47.936  17.009  19.422  0.00  0.00    -0.028 C 
ATOM     17  C   UNL     1      48.754  18.249  19.468  0.00  0.00    -0.081 C 
ATOM     18  C   UNL     1      48.195  19.465  18.788  0.00  0.00    +0.069 C 
ATOM     19  C   UNL     1      48.919  20.730  19.244  0.00  0.00    +0.026 C 
ATOM     20  C   UNL     1      50.429  20.472  19.111  0.00  0.00    +0.006 C 
ATOM     21  C   UNL     1      50.817  19.430  20.151  0.00  0.00    -0.019 C 
ATOM     22  C   UNL     1      50.670  20.063  21.536  0.00  0.00    +0.033 C 
ATOM     23  C   UNL     1      52.277  19.017  19.988  0.00  0.00    +0.030 C 
ATOM     24  C   UNL     1      52.539  18.509  18.571  0.00  0.00    -0.015 C 
ATOM     25  C   UNL     1      52.197  19.611  17.565  0.00  0.00    +0.158 C 
ATOM     28  C   UNL     1      50.717  19.976  17.692  0.00  0.00    +0.036 C 
ATOM     29  C   UNL     1      49.921  18.211  20.094  0.00  0.00    -0.068 C 
ATOM     30  C   UNL     1      50.443  16.985  20.806  0.00  0.00    +0.068 C 
ATOM     31  C   UNL     1      49.883  15.663  20.295  0.00  0.00    +0.067 C 
ATOM     32  C   UNL     1      48.363  15.795  20.214  0.00  0.00    -0.100 C 
ATOM     33  C   UNL     1      48.759  12.390  19.376  0.00  0.00    +0.373 C 
ATOM     36  O   UNL     1      46.705  14.625  17.537  0.00  0.00    -0.337 OA
ATOM     37  O   UNL     1      48.664  11.624  18.122  0.00  0.00    -0.375 OA
ENDROOT
BRANCH  25  26
ATOM     26  O   UNL     1      52.466  19.150  16.240  0.00  0.00    -0.568 OA
ATOM     27  H   UNL     1      53.221  19.583  15.818  0.00  0.00    +0.377 HD
ENDBRANCH  25  26
BRANCH  33  34
ATOM     34  O   UNL     1      48.580  11.531  20.503  0.00  0.00    -0.544 OA
ATOM     35  H   UNL     1      48.964  11.872  21.323  0.00  0.00    +0.389 HD
ENDBRANCH  33  34
BRANCH   9   3
ATOM      3  C   UNL     1      48.862  12.536  15.860  0.00  0.00    +0.095 C 
BRANCH   3   2
ATOM      1  C   UNL     1      46.859  11.190  15.212  0.00  0.00    +0.039 C 
ATOM      2  C   UNL     1      48.160  11.816  14.707  0.00  0.00    +0.021 C 
ATOM     38  C   UNL     1      47.845  12.820  13.596  0.00  0.00    +0.032 C 
ENDBRANCH   3   2
BRANCH   3   6
ATOM      6  C   UNL     1      50.199  11.890  16.115  0.00  0.00    +0.336 C 
ATOM      7  C   UNL     1      51.346  12.713  16.643  0.00  0.00    +0.072 C 
ATOM      8  O   UNL     1      50.351  10.712  15.899  0.00  0.00    -0.438 OA
ENDBRANCH   3   6
BRANCH   3   4
ATOM      4  O   UNL     1      49.054  13.910  15.518  0.00  0.00    -0.526 OA
ATOM      5  H   UNL     1      48.358  14.497  15.842  0.00  0.00    +0.382 HD
ENDBRANCH   3   4
ENDBRANCH   9   3
TORSDOF 6
ENDMDL
MODEL 2
REMARK VINA RESULT:      -5.9      3.192      6.632
REMARK  Name = ZINC95485903
REMARK  10 active torsions:
REMARK  status: ('A' for Active; 'I' for Inactive)
REMARK    1  A    between atoms: C1_1  and  C2_2
REMARK    2  A    between atoms: C2_2  and  C3_3
REMARK    3  A    between atoms: C2_2  and  C4_4
REMARK    4  A    between atoms: C4_4  and  C5_5
REMARK    5  A    between atoms: C4_4  and  C28_39
REMARK    6  A    between atoms: C4_4  and  O6_42
REMARK    7  A    between atoms: C8_11  and  O2_14
REMARK    8  A    between atoms: C22_31  and  C27_38
REMARK    9  A    between atoms: C25_34  and  O4_37
REMARK   10  A    between atoms: C28_39  and  C29_41
REMARK                            x       y       z     vdW  Elec       q    Type
REMARK                         _______ _______ _______ _____ _____    ______ ____
ROOT
ATOM      9  C   UNL     1      52.582  16.822  19.462  0.00  0.00    +0.189 C 
ATOM     10  C   UNL     1      51.787  18.058  19.846  0.00  0.00    +0.117 C 
ATOM     11  C   UNL     1      52.064  18.921  18.544  0.00  0.00    -0.004 C 
ATOM     12  C   UNL     1      51.346  20.152  18.944  0.00  0.00    -0.149 C 
ATOM     13  C   UNL     1      50.802  21.318  18.154  0.00  0.00    +0.133 C 
ATOM     14  C   UNL     1      51.808  20.281  20.435  0.00  0.00    +0.242 C 
ATOM     15  C   UNL     1      50.612  20.761  21.199  0.00  0.00    -0.039 C 
ATOM     16  C   UNL     1      49.544  20.821  20.438  0.00  0.00    -0.028 C 
ATOM     17  C   UNL     1      48.139  21.084  20.843  0.00  0.00    -0.081 C 
ATOM     18  C   UNL     1      47.909  21.575  22.244  0.00  0.00    +0.069 C 
ATOM     19  C   UNL     1      46.511  22.173  22.392  0.00  0.00    +0.026 C 
ATOM     20  C   UNL     1      45.510  21.156  21.821  0.00  0.00    +0.006 C 
ATOM     21  C   UNL     1      45.722  21.088  20.315  0.00  0.00    -0.019 C 
ATOM     22  C   UNL     1      45.280  22.422  19.712  0.00  0.00    +0.033 C 
ATOM     23  C   UNL     1      44.858  19.994  19.694  0.00  0.00    +0.030 C 
ATOM     24  C   UNL     1      45.138  18.645  20.354  0.00  0.00    -0.015 C 
ATOM     25  C   UNL     1      44.848  18.744  21.854  0.00  0.00    +0.158 C 
ATOM     28  C   UNL     1      45.762  19.799  22.482  0.00  0.00    +0.036 C 
ATOM     29  C   UNL     1      47.177  20.869  19.958  0.00  0.00    -0.068 C 
ATOM     30  C   UNL     1      47.438  20.414  18.542  0.00  0.00    +0.068 C 
ATOM     31  C   UNL     1      48.750  19.663  18.343  0.00  0.00    +0.067 C 
ATOM     32  C   UNL     1      49.863  20.476  19.002  0.00  0.00    -0.100 C 
ATOM     33  C   UNL     1      51.749  17.895  17.508  0.00  0.00    +0.373 C 
ATOM     36  O   UNL     1      52.197  18.942  20.869  0.00  0.00    -0.337 OA
ATOM     37  O   UNL     1      52.446  16.703  18.020  0.00  0.00    -0.375 OA
ENDROOT
BRANCH  25  26
ATOM     26  O   UNL     1      45.082  17.477  22.471  0.00  0.00    -0.568 OA
ATOM     27  H   UNL     1      44.398  17.215  23.104  0.00  0.00    +0.377 HD
ENDBRANCH  25  26
BRANCH  33  34
ATOM     34  O   UNL     1      52.281  18.279  16.238  0.00  0.00    -0.544 OA
ATOM     35  H   UNL     1      51.794  17.920  15.483  0.00  0.00    +0.389 HD
ENDBRANCH  33  34
BRANCH   9   3
ATOM      3  C   UNL     1      52.004  15.585  20.151  0.00  0.00    +0.095 C 
BRANCH   3   2
ATOM      1  C   UNL     1      54.435  15.587  20.727  0.00  0.00    +0.039 C 
ATOM      2  C   UNL     1      53.137  14.779  20.788  0.00  0.00    +0.021 C 
ATOM     38  C   UNL     1      52.792  14.480  22.249  0.00  0.00    +0.032 C 
ENDBRANCH   3   2
BRANCH   3   6
ATOM      6  C   UNL     1      51.291  14.730  19.135  0.00  0.00    +0.336 C 
ATOM      7  C   UNL     1      49.833  14.969  18.837  0.00  0.00    +0.072 C 
ATOM      8  O   UNL     1      51.889  13.854  18.557  0.00  0.00    -0.438 OA
ENDBRANCH   3   6
BRANCH   3   4
ATOM      4  O   UNL     1      51.080  15.991  21.163  0.00  0.00    -0.526 OA
ATOM      5  H   UNL     1      51.109  15.449  21.963  0.00  0.00    +0.382 HD
ENDBRANCH   3   4
ENDBRANCH   9   3
TORSDOF 6
ENDMDL
MODEL 3
REMARK VINA RESULT:      -5.6      1.966      2.865
REMARK  Name = ZINC95485903
REMARK  10 active torsions:
REMARK  status: ('A' for Active; 'I' for Inactive)
REMARK    1  A    between atoms: C1_1  and  C2_2
REMARK    2  A    between atoms: C2_2  and  C3_3
REMARK    3  A    between atoms: C2_2  and  C4_4
REMARK    4  A    between atoms: C4_4  and  C5_5
REMARK    5  A    between atoms: C4_4  and  C28_39
REMARK    6  A    between atoms: C4_4  and  O6_42
REMARK    7  A    between atoms: C8_11  and  O2_14
REMARK    8  A    between atoms: C22_31  and  C27_38
REMARK    9  A    between atoms: C25_34  and  O4_37
REMARK   10  A    between atoms: C28_39  and  C29_41
REMARK                            x       y       z     vdW  Elec       q    Type
REMARK                         _______ _______ _______ _____ _____    ______ ____
ROOT
ATOM      9  C   UNL     1      45.685  14.197  18.577  0.00  0.00    +0.189 C 
ATOM     10  C   UNL     1      46.233  15.605  18.730  0.00  0.00    +0.117 C 
ATOM     11  C   UNL     1      45.412  16.029  20.020  0.00  0.00    -0.004 C 
ATOM     12  C   UNL     1      45.893  17.425  20.132  0.00  0.00    -0.149 C 
ATOM     13  C   UNL     1      45.904  18.412  21.276  0.00  0.00    +0.133 C 
ATOM     14  C   UNL     1      45.837  17.869  18.631  0.00  0.00    +0.242 C 
ATOM     15  C   UNL     1      47.044  18.729  18.409  0.00  0.00    -0.039 C 
ATOM     16  C   UNL     1      47.817  18.761  19.469  0.00  0.00    -0.028 C 
ATOM     17  C   UNL     1      49.172  19.355  19.601  0.00  0.00    -0.081 C 
ATOM     18  C   UNL     1      49.649  20.234  18.480  0.00  0.00    +0.069 C 
ATOM     19  C   UNL     1      50.848  21.076  18.915  0.00  0.00    +0.026 C 
ATOM     20  C   UNL     1      51.870  20.126  19.559  0.00  0.00    +0.006 C 
ATOM     21  C   UNL     1      51.280  19.622  20.869  0.00  0.00    -0.019 C 
ATOM     22  C   UNL     1      51.206  20.801  21.841  0.00  0.00    +0.033 C 
ATOM     23  C   UNL     1      52.179  18.563  21.499  0.00  0.00    +0.030 C 
ATOM     24  C   UNL     1      52.423  17.412  20.523  0.00  0.00    -0.015 C 
ATOM     25  C   UNL     1      53.078  17.956  19.251  0.00  0.00    +0.158 C 
ATOM     28  C   UNL     1      52.143  18.972  18.591  0.00  0.00    +0.036 C 
ATOM     29  C   UNL     1      49.880  19.075  20.685  0.00  0.00    -0.068 C 
ATOM     30  C   UNL     1      49.361  18.221  21.817  0.00  0.00    +0.068 C 
ATOM     31  C   UNL     1      48.266  17.235  21.426  0.00  0.00    +0.067 C 
ATOM     32  C   UNL     1      47.213  17.996  20.623  0.00  0.00    -0.100 C 
ATOM     33  C   UNL     1      45.671  14.832  20.870  0.00  0.00    +0.373 C 
ATOM     36  O   UNL     1      45.915  16.650  17.832  0.00  0.00    -0.337 OA
ATOM     37  O   UNL     1      45.449  13.722  19.929  0.00  0.00    -0.375 OA
ENDROOT
BRANCH  25  26
ATOM     26  O   UNL     1      53.333  16.880  18.347  0.00  0.00    -0.568 OA
ATOM     27  H   UNL     1      52.631  16.214  18.319  0.00  0.00    +0.377 HD
ENDBRANCH  25  26
BRANCH  33  34
ATOM     34  O   UNL     1      44.738  14.768  21.950  0.00  0.00    -0.544 OA
ATOM     35  H   UNL     1      43.923  15.266  21.796  0.00  0.00    +0.389 HD
ENDBRANCH  33  34
BRANCH   9   3
ATOM      3  C   UNL     1      46.710  13.304  17.874  0.00  0.00    +0.095 C 
BRANCH   3   2
ATOM      1  C   UNL     1      44.700  12.106  16.997  0.00  0.00    +0.039 C 
ATOM      2  C   UNL     1      46.092  11.930  17.608  0.00  0.00    +0.021 C 
ATOM     38  C   UNL     1      46.980  11.151  16.634  0.00  0.00    +0.032 C 
ENDBRANCH   3   2
BRANCH   3   6
ATOM      6  C   UNL     1      47.924  13.145  18.752  0.00  0.00    +0.336 C 
ATOM      7  C   UNL     1      49.142  14.002  18.517  0.00  0.00    +0.072 C 
ATOM      8  O   UNL     1      47.922  12.332  19.645  0.00  0.00    -0.438 OA
ENDBRANCH   3   6
BRANCH   3   4
ATOM      4  O   UNL     1      47.093  13.902  16.635  0.00  0.00    -0.526 OA
ATOM      5  H   UNL     1      46.689  13.493  15.858  0.00  0.00    +0.382 HD
ENDBRANCH   3   4
ENDBRANCH   9   3
TORSDOF 6
ENDMDL
MODEL 4
REMARK VINA RESULT:      -5.6      2.015      7.230
REMARK  Name = ZINC95485903
REMARK  10 active torsions:
REMARK  status: ('A' for Active; 'I' for Inactive)
REMARK    1  A    between atoms: C1_1  and  C2_2
REMARK    2  A    between atoms: C2_2  and  C3_3
REMARK    3  A    between atoms: C2_2  and  C4_4
REMARK    4  A    between atoms: C4_4  and  C5_5
REMARK    5  A    between atoms: C4_4  and  C28_39
REMARK    6  A    between atoms: C4_4  and  O6_42
REMARK    7  A    between atoms: C8_11  and  O2_14
REMARK    8  A    between atoms: C22_31  and  C27_38
REMARK    9  A    between atoms: C25_34  and  O4_37
REMARK   10  A    between atoms: C28_39  and  C29_41
REMARK                            x       y       z     vdW  Elec       q    Type
REMARK                         _______ _______ _______ _____ _____    ______ ____
ROOT
ATOM      9  C   UNL     1      49.693  18.686  19.246  0.00  0.00    +0.189 C 
ATOM     10  C   UNL     1      49.227  17.241  19.303  0.00  0.00    +0.117 C 
ATOM     11  C   UNL     1      47.677  17.510  19.509  0.00  0.00    -0.004 C 
ATOM     12  C   UNL     1      47.229  16.104  19.633  0.00  0.00    -0.149 C 
ATOM     13  C   UNL     1      45.878  15.447  19.477  0.00  0.00    +0.133 C 
ATOM     14  C   UNL     1      48.350  15.527  20.561  0.00  0.00    +0.242 C 
ATOM     15  C   UNL     1      48.632  14.144  20.057  0.00  0.00    -0.039 C 
ATOM     16  C   UNL     1      47.958  13.881  18.962  0.00  0.00    -0.028 C 
ATOM     17  C   UNL     1      48.079  12.700  18.069  0.00  0.00    -0.081 C 
ATOM     18  C   UNL     1      48.890  11.539  18.571  0.00  0.00    +0.069 C 
ATOM     19  C   UNL     1      48.604  10.278  17.757  0.00  0.00    +0.026 C 
ATOM     20  C   UNL     1      48.736  10.648  16.271  0.00  0.00    +0.006 C 
ATOM     21  C   UNL     1      47.586  11.581  15.918  0.00  0.00    -0.019 C 
ATOM     22  C   UNL     1      46.285  10.780  15.986  0.00  0.00    +0.033 C 
ATOM     23  C   UNL     1      47.728  12.104  14.492  0.00  0.00    +0.030 C 
ATOM     24  C   UNL     1      49.078  12.794  14.302  0.00  0.00    -0.015 C 
ATOM     25  C   UNL     1      50.203  11.799  14.603  0.00  0.00    +0.158 C 
ATOM     28  C   UNL     1      50.090  11.327  16.054  0.00  0.00    +0.036 C 
ATOM     29  C   UNL     1      47.477  12.738  16.889  0.00  0.00    -0.068 C 
ATOM     30  C   UNL     1      46.634  13.902  16.424  0.00  0.00    +0.068 C 
ATOM     31  C   UNL     1      46.969  15.237  17.079  0.00  0.00    +0.067 C 
ATOM     32  C   UNL     1      47.035  15.017  18.589  0.00  0.00    -0.100 C 
ATOM     33  C   UNL     1      47.465  18.516  18.428  0.00  0.00    +0.373 C 
ATOM     36  O   UNL     1      49.517  16.387  20.391  0.00  0.00    -0.337 OA
ATOM     37  O   UNL     1      48.614  19.418  18.606  0.00  0.00    -0.375 OA
ENDROOT
BRANCH  25  26
ATOM     26  O   UNL     1      51.467  12.432  14.400  0.00  0.00    -0.568 OA
ATOM     27  H   UNL     1      52.022  12.466  15.193  0.00  0.00    +0.377 HD
ENDBRANCH  25  26
BRANCH  33  34
ATOM     34  O   UNL     1      46.238  19.221  18.628  0.00  0.00    -0.544 OA
ATOM     35  H   UNL     1      45.595  19.102  17.915  0.00  0.00    +0.389 HD
ENDBRANCH  33  34
BRANCH   9   3
ATOM      3  C   UNL     1      50.973  18.796  18.415  0.00  0.00    +0.095 C 
BRANCH   3   2
ATOM      1  C   UNL     1      51.428  21.197  18.936  0.00  0.00    +0.039 C 
ATOM      2  C   UNL     1      51.079  20.205  17.826  0.00  0.00    +0.021 C 
ATOM     38  C   UNL     1      52.173  20.230  16.757  0.00  0.00    +0.032 C 
ENDBRANCH   3   2
BRANCH   3   6
ATOM      6  C   UNL     1      50.936  17.787  17.297  0.00  0.00    +0.336 C 
ATOM      7  C   UNL     1      51.842  16.583  17.338  0.00  0.00    +0.072 C 
ATOM      8  O   UNL     1      50.179  17.942  16.369  0.00  0.00    -0.438 OA
ENDBRANCH   3   6
BRANCH   3   4
ATOM      4  O   UNL     1      52.105  18.543  19.249  0.00  0.00    -0.526 OA
ATOM      5  H   UNL     1      52.608  17.754  19.001  0.00  0.00    +0.382 HD
ENDBRANCH   3   4
ENDBRANCH   9   3
TORSDOF 6
ENDMDL
MODEL 5
REMARK VINA RESULT:      -5.4      3.260      6.532
REMARK  Name = ZINC95485903
REMARK  10 active torsions:
REMARK  status: ('A' for Active; 'I' for Inactive)
REMARK    1  A    between atoms: C1_1  and  C2_2
REMARK    2  A    between atoms: C2_2  and  C3_3
REMARK    3  A    between atoms: C2_2  and  C4_4
REMARK    4  A    between atoms: C4_4  and  C5_5
REMARK    5  A    between atoms: C4_4  and  C28_39
REMARK    6  A    between atoms: C4_4  and  O6_42
REMARK    7  A    between atoms: C8_11  and  O2_14
REMARK    8  A    between atoms: C22_31  and  C27_38
REMARK    9  A    between atoms: C25_34  and  O4_37
REMARK   10  A    between atoms: C28_39  and  C29_41
REMARK                            x       y       z     vdW  Elec       q    Type
REMARK                         _______ _______ _______ _____ _____    ______ ____
ROOT
ATOM      9  C   UNL     1      51.070  16.421  19.705  0.00  0.00    +0.189 C 
ATOM     10  C   UNL     1      50.450  17.761  20.063  0.00  0.00    +0.117 C 
ATOM     11  C   UNL     1      50.942  18.584  18.799  0.00  0.00    -0.004 C 
ATOM     12  C   UNL     1      50.397  19.907  19.178  0.00  0.00    -0.149 C 
ATOM     13  C   UNL     1      50.092  21.151  18.377  0.00  0.00    +0.133 C 
ATOM     14  C   UNL     1      50.773  19.948  20.697  0.00  0.00    +0.242 C 
ATOM     15  C   UNL     1      49.616  20.599  21.392  0.00  0.00    -0.039 C 
ATOM     16  C   UNL     1      48.624  20.831  20.565  0.00  0.00    -0.028 C 
ATOM     17  C   UNL     1      47.252  21.304  20.885  0.00  0.00    -0.081 C 
ATOM     18  C   UNL     1      47.007  21.810  22.278  0.00  0.00    +0.069 C 
ATOM     19  C   UNL     1      45.711  22.616  22.349  0.00  0.00    +0.026 C 
ATOM     20  C   UNL     1      44.606  21.772  21.694  0.00  0.00    +0.006 C 
ATOM     21  C   UNL     1      44.904  21.686  20.203  0.00  0.00    -0.019 C 
ATOM     22  C   UNL     1      44.714  23.079  19.600  0.00  0.00    +0.033 C 
ATOM     23  C   UNL     1      43.926  20.746  19.506  0.00  0.00    +0.030 C 
ATOM     24  C   UNL     1      43.951  19.363  20.155  0.00  0.00    -0.015 C 
ATOM     25  C   UNL     1      43.580  19.490  21.635  0.00  0.00    +0.158 C 
ATOM     28  C   UNL     1      44.602  20.385  22.341  0.00  0.00    +0.036 C 
ATOM     29  C   UNL     1      46.329  21.249  19.936  0.00  0.00    -0.068 C 
ATOM     30  C   UNL     1      46.611  20.774  18.530  0.00  0.00    +0.068 C 
ATOM     31  C   UNL     1      47.802  19.831  18.401  0.00  0.00    +0.067 C 
ATOM     32  C   UNL     1      48.980  20.455  19.146  0.00  0.00    -0.100 C 
ATOM     33  C   UNL     1      50.543  17.629  17.724  0.00  0.00    +0.373 C 
ATOM     36  O   UNL     1      50.922  18.561  21.128  0.00  0.00    -0.337 OA
ATOM     37  O   UNL     1      51.013  16.339  18.256  0.00  0.00    -0.375 OA
ENDROOT
BRANCH  25  26
ATOM     26  O   UNL     1      43.576  18.196  22.240  0.00  0.00    -0.568 OA
ATOM     27  H   UNL     1      43.514  17.466  21.608  0.00  0.00    +0.377 HD
ENDBRANCH  25  26
BRANCH  33  34
ATOM     34  O   UNL     1      51.211  17.940  16.499  0.00  0.00    -0.544 OA
ATOM     35  H   UNL     1      52.171  17.824  16.535  0.00  0.00    +0.389 HD
ENDBRANCH  33  34
BRANCH   9   3
ATOM      3  C   UNL     1      50.264  15.281  20.331  0.00  0.00    +0.095 C 
BRANCH   3   2
ATOM      1  C   UNL     1      47.888  15.898  19.865  0.00  0.00    +0.039 C 
ATOM      2  C   UNL     1      48.976  15.840  20.938  0.00  0.00    +0.021 C 
ATOM     38  C   UNL     1      48.516  14.933  22.082  0.00  0.00    +0.032 C 
ENDBRANCH   3   2
BRANCH   3   6
ATOM      6  C   UNL     1      51.081  14.620  21.410  0.00  0.00    +0.336 C 
ATOM      7  C   UNL     1      51.834  15.461  22.408  0.00  0.00    +0.072 C 
ATOM      8  O   UNL     1      51.133  13.415  21.476  0.00  0.00    -0.438 OA
ENDBRANCH   3   6
BRANCH   3   4
ATOM      4  O   UNL     1      49.937  14.320  19.324  0.00  0.00    -0.526 OA
ATOM      5  H   UNL     1      50.670  14.108  18.730  0.00  0.00    +0.382 HD
ENDBRANCH   3   4
ENDBRANCH   9   3
TORSDOF 6
ENDMDL
MODEL 6
REMARK VINA RESULT:      -5.4      1.524      2.519
REMARK  Name = ZINC95485903
REMARK  10 active torsions:
REMARK  status: ('A' for Active; 'I' for Inactive)
REMARK    1  A    between atoms: C1_1  and  C2_2
REMARK    2  A    between atoms: C2_2  and  C3_3
REMARK    3  A    between atoms: C2_2  and  C4_4
REMARK    4  A    between atoms: C4_4  and  C5_5
REMARK    5  A    between atoms: C4_4  and  C28_39
REMARK    6  A    between atoms: C4_4  and  O6_42
REMARK    7  A    between atoms: C8_11  and  O2_14
REMARK    8  A    between atoms: C22_31  and  C27_38
REMARK    9  A    between atoms: C25_34  and  O4_37
REMARK   10  A    between atoms: C28_39  and  C29_41
REMARK                            x       y       z     vdW  Elec       q    Type
REMARK                         _______ _______ _______ _____ _____    ______ ____
ROOT
ATOM      9  C   UNL     1      46.825  12.753  17.067  0.00  0.00    +0.189 C 
ATOM     10  C   UNL     1      47.165  14.221  17.263  0.00  0.00    +0.117 C 
ATOM     11  C   UNL     1      45.977  14.600  18.244  0.00  0.00    -0.004 C 
ATOM     12  C   UNL     1      46.265  16.045  18.384  0.00  0.00    -0.149 C 
ATOM     13  C   UNL     1      45.856  17.072  19.413  0.00  0.00    +0.133 C 
ATOM     14  C   UNL     1      46.589  16.418  16.897  0.00  0.00    +0.242 C 
ATOM     15  C   UNL     1      47.717  17.402  16.954  0.00  0.00    -0.039 C 
ATOM     16  C   UNL     1      48.154  17.567  18.181  0.00  0.00    -0.028 C 
ATOM     17  C   UNL     1      49.352  18.318  18.637  0.00  0.00    -0.081 C 
ATOM     18  C   UNL     1      50.035  19.199  17.631  0.00  0.00    +0.069 C 
ATOM     19  C   UNL     1      50.972  20.192  18.317  0.00  0.00    +0.026 C 
ATOM     20  C   UNL     1      51.862  19.393  19.283  0.00  0.00    +0.006 C 
ATOM     21  C   UNL     1      50.980  18.879  20.413  0.00  0.00    -0.019 C 
ATOM     22  C   UNL     1      50.519  20.080  21.240  0.00  0.00    +0.033 C 
ATOM     23  C   UNL     1      51.768  17.958  21.340  0.00  0.00    +0.030 C 
ATOM     24  C   UNL     1      52.389  16.804  20.555  0.00  0.00    -0.015 C 
ATOM     25  C   UNL     1      53.318  17.367  19.475  0.00  0.00    +0.158 C 
ATOM     28  C   UNL     1      52.509  18.240  18.513  0.00  0.00    +0.036 C 
ATOM     29  C   UNL     1      49.750  18.166  19.891  0.00  0.00    -0.068 C 
ATOM     30  C   UNL     1      49.022  17.305  20.896  0.00  0.00    +0.068 C 
ATOM     31  C   UNL     1      48.185  16.184  20.290  0.00  0.00    +0.067 C 
ATOM     32  C   UNL     1      47.330  16.785  19.176  0.00  0.00    -0.100 C 
ATOM     33  C   UNL     1      46.104  13.476  19.217  0.00  0.00    +0.373 C 
ATOM     36  O   UNL     1      47.010  15.184  16.240  0.00  0.00    -0.337 OA
ATOM     37  O   UNL     1      46.267  12.310  18.332  0.00  0.00    -0.375 OA
ENDROOT
BRANCH  25  26
ATOM     26  O   UNL     1      53.922  16.292  18.756  0.00  0.00    -0.568 OA
ATOM     27  H   UNL     1      54.551  16.576  18.077  0.00  0.00    +0.377 HD
ENDBRANCH  25  26
BRANCH  33  34
ATOM     34  O   UNL     1      44.916  13.349  20.000  0.00  0.00    -0.544 OA
ATOM     35  H   UNL     1      44.124  13.706  19.574  0.00  0.00    +0.389 HD
ENDBRANCH  33  34
BRANCH   9   3
ATOM      3  C   UNL     1      48.090  11.957  16.739  0.00  0.00    +0.095 C 
BRANCH   3   2
ATOM      1  C   UNL     1      49.744  12.741  18.440  0.00  0.00    +0.039 C 
ATOM      2  C   UNL     1      49.321  12.835  16.973  0.00  0.00    +0.021 C 
ATOM     38  C   UNL     1      50.467  12.355  16.080  0.00  0.00    +0.032 C 
ENDBRANCH   3   2
BRANCH   3   6
ATOM      6  C   UNL     1      48.051  11.523  15.296  0.00  0.00    +0.336 C 
ATOM      7  C   UNL     1      47.732  12.524  14.216  0.00  0.00    +0.072 C 
ATOM      8  O   UNL     1      48.276  10.373  15.005  0.00  0.00    -0.438 OA
ENDBRANCH   3   6
BRANCH   3   4
ATOM      4  O   UNL     1      48.159  10.805  17.581  0.00  0.00    -0.526 OA
ATOM      5  H   UNL     1      47.870  10.964  18.490  0.00  0.00    +0.382 HD
ENDBRANCH   3   4
ENDBRANCH   9   3
TORSDOF 6
ENDMDL
MODEL 7
REMARK VINA RESULT:      -5.2      2.129      7.177
REMARK  Name = ZINC95485903
REMARK  10 active torsions:
REMARK  status: ('A' for Active; 'I' for Inactive)
REMARK    1  A    between atoms: C1_1  and  C2_2
REMARK    2  A    between atoms: C2_2  and  C3_3
REMARK    3  A    between atoms: C2_2  and  C4_4
REMARK    4  A    between atoms: C4_4  and  C5_5
REMARK    5  A    between atoms: C4_4  and  C28_39
REMARK    6  A    between atoms: C4_4  and  O6_42
REMARK    7  A    between atoms: C8_11  and  O2_14
REMARK    8  A    between atoms: C22_31  and  C27_38
REMARK    9  A    between atoms: C25_34  and  O4_37
REMARK   10  A    between atoms: C28_39  and  C29_41
REMARK                            x       y       z     vdW  Elec       q    Type
REMARK                         _______ _______ _______ _____ _____    ______ ____
ROOT
ATOM      9  C   UNL     1      49.237  19.510  19.594  0.00  0.00    +0.189 C 
ATOM     10  C   UNL     1      48.783  18.064  19.688  0.00  0.00    +0.117 C 
ATOM     11  C   UNL     1      47.217  18.314  19.651  0.00  0.00    -0.004 C 
ATOM     12  C   UNL     1      46.771  16.911  19.811  0.00  0.00    -0.149 C 
ATOM     13  C   UNL     1      45.463  16.216  19.512  0.00  0.00    +0.133 C 
ATOM     14  C   UNL     1      47.753  16.423  20.929  0.00  0.00    +0.242 C 
ATOM     15  C   UNL     1      48.119  15.015  20.571  0.00  0.00    -0.039 C 
ATOM     16  C   UNL     1      47.613  14.662  19.413  0.00  0.00    -0.028 C 
ATOM     17  C   UNL     1      47.874  13.425  18.634  0.00  0.00    -0.081 C 
ATOM     18  C   UNL     1      48.616  12.319  19.328  0.00  0.00    +0.069 C 
ATOM     19  C   UNL     1      48.464  10.999  18.575  0.00  0.00    +0.026 C 
ATOM     20  C   UNL     1      48.804  11.266  17.100  0.00  0.00    +0.006 C 
ATOM     21  C   UNL     1      47.707  12.148  16.520  0.00  0.00    -0.019 C 
ATOM     22  C   UNL     1      46.418  11.326  16.460  0.00  0.00    +0.033 C 
ATOM     23  C   UNL     1      48.047  12.574  15.095  0.00  0.00    +0.030 C 
ATOM     24  C   UNL     1      49.403  13.276  15.051  0.00  0.00    -0.015 C 
ATOM     25  C   UNL     1      50.484  12.329  15.580  0.00  0.00    +0.158 C 
ATOM     28  C   UNL     1      50.168  11.956  17.030  0.00  0.00    +0.036 C 
ATOM     29  C   UNL     1      47.447  13.368  17.380  0.00  0.00    -0.068 C 
ATOM     30  C   UNL     1      46.667  14.478  16.717  0.00  0.00    +0.068 C 
ATOM     31  C   UNL     1      46.891  15.862  17.315  0.00  0.00    +0.067 C 
ATOM     32  C   UNL     1      46.741  15.750  18.831  0.00  0.00    -0.100 C 
ATOM     33  C   UNL     1      47.151  19.237  18.481  0.00  0.00    +0.373 C 
ATOM     36  O   UNL     1      48.923  17.294  20.865  0.00  0.00    -0.337 OA
ATOM     37  O   UNL     1      48.254  20.173  18.756  0.00  0.00    -0.375 OA
ENDROOT
BRANCH  25  26
ATOM     26  O   UNL     1      51.757  12.972  15.515  0.00  0.00    -0.568 OA
ATOM     27  H   UNL     1      52.383  12.547  14.911  0.00  0.00    +0.377 HD
ENDBRANCH  25  26
BRANCH  33  34
ATOM     34  O   UNL     1      45.901  19.929  18.453  0.00  0.00    -0.544 OA
ATOM     35  H   UNL     1      45.904  20.766  18.938  0.00  0.00    +0.389 HD
ENDBRANCH  33  34
BRANCH   9   3
ATOM      3  C   UNL     1      50.622  19.590  18.949  0.00  0.00    +0.095 C 
BRANCH   3   2
ATOM      1  C   UNL     1      50.490  18.152  16.910  0.00  0.00    +0.039 C 
ATOM      2  C   UNL     1      50.987  18.228  18.355  0.00  0.00    +0.021 C 
ATOM     38  C   UNL     1      52.507  18.051  18.381  0.00  0.00    +0.032 C 
ENDBRANCH   3   2
BRANCH   3   6
ATOM      6  C   UNL     1      51.641  19.971  19.991  0.00  0.00    +0.336 C 
ATOM      7  C   UNL     1      52.556  21.146  19.758  0.00  0.00    +0.072 C 
ATOM      8  O   UNL     1      51.725  19.336  21.015  0.00  0.00    -0.438 OA
ENDBRANCH   3   6
BRANCH   3   4
ATOM      4  O   UNL     1      50.609  20.574  17.913  0.00  0.00    -0.526 OA
ATOM      5  H   UNL     1      50.048  21.338  18.102  0.00  0.00    +0.382 HD
ENDBRANCH   3   4
ENDBRANCH   9   3
TORSDOF 6
ENDMDL
MODEL 8
REMARK VINA RESULT:      -5.1      2.321      4.800
REMARK  Name = ZINC95485903
REMARK  10 active torsions:
REMARK  status: ('A' for Active; 'I' for Inactive)
REMARK    1  A    between atoms: C1_1  and  C2_2
REMARK    2  A    between atoms: C2_2  and  C3_3
REMARK    3  A    between atoms: C2_2  and  C4_4
REMARK    4  A    between atoms: C4_4  and  C5_5
REMARK    5  A    between atoms: C4_4  and  C28_39
REMARK    6  A    between atoms: C4_4  and  O6_42
REMARK    7  A    between atoms: C8_11  and  O2_14
REMARK    8  A    between atoms: C22_31  and  C27_38
REMARK    9  A    between atoms: C25_34  and  O4_37
REMARK   10  A    between atoms: C28_39  and  C29_41
REMARK                            x       y       z     vdW  Elec       q    Type
REMARK                         _______ _______ _______ _____ _____    ______ ____
ROOT
ATOM      9  C   UNL     1      47.248  13.178  19.515  0.00  0.00    +0.189 C 
ATOM     10  C   UNL     1      48.464  14.086  19.577  0.00  0.00    +0.117 C 
ATOM     11  C   UNL     1      49.091  13.724  18.165  0.00  0.00    -0.004 C 
ATOM     12  C   UNL     1      50.312  14.557  18.252  0.00  0.00    -0.149 C 
ATOM     13  C   UNL     1      51.264  15.084  17.204  0.00  0.00    +0.133 C 
ATOM     14  C   UNL     1      50.753  14.268  19.727  0.00  0.00    +0.242 C 
ATOM     15  C   UNL     1      51.265  15.568  20.267  0.00  0.00    -0.039 C 
ATOM     16  C   UNL     1      51.096  16.548  19.412  0.00  0.00    -0.028 C 
ATOM     17  C   UNL     1      51.314  18.002  19.624  0.00  0.00    -0.081 C 
ATOM     18  C   UNL     1      52.035  18.413  20.876  0.00  0.00    +0.069 C 
ATOM     19  C   UNL     1      52.534  19.854  20.774  0.00  0.00    +0.026 C 
ATOM     20  C   UNL     1      51.350  20.721  20.317  0.00  0.00    +0.006 C 
ATOM     21  C   UNL     1      51.022  20.344  18.879  0.00  0.00    -0.019 C 
ATOM     22  C   UNL     1      52.180  20.800  17.991  0.00  0.00    +0.033 C 
ATOM     23  C   UNL     1      49.765  21.065  18.402  0.00  0.00    +0.030 C 
ATOM     24  C   UNL     1      48.589  20.774  19.333  0.00  0.00    -0.015 C 
ATOM     25  C   UNL     1      48.940  21.231  20.751  0.00  0.00    +0.158 C 
ATOM     28  C   UNL     1      50.164  20.458  21.247  0.00  0.00    +0.036 C 
ATOM     29  C   UNL     1      50.860  18.847  18.710  0.00  0.00    -0.068 C 
ATOM     30  C   UNL     1      50.174  18.406  17.439  0.00  0.00    +0.068 C 
ATOM     31  C   UNL     1      49.509  17.037  17.513  0.00  0.00    +0.067 C 
ATOM     32  C   UNL     1      50.518  16.055  18.106  0.00  0.00    -0.100 C 
ATOM     33  C   UNL     1      47.869  13.861  17.321  0.00  0.00    +0.373 C 
ATOM     36  O   UNL     1      49.554  13.845  20.445  0.00  0.00    -0.337 OA
ATOM     37  O   UNL     1      46.854  13.150  18.117  0.00  0.00    -0.375 OA
ENDROOT
BRANCH  25  26
ATOM     26  O   UNL     1      47.833  20.986  21.620  0.00  0.00    -0.568 OA
ATOM     27  H   UNL     1      47.984  21.257  22.537  0.00  0.00    +0.377 HD
ENDBRANCH  25  26
BRANCH  33  34
ATOM     34  O   UNL     1      48.054  13.219  16.058  0.00  0.00    -0.544 OA
ATOM     35  H   UNL     1      47.377  13.438  15.402  0.00  0.00    +0.389 HD
ENDBRANCH  33  34
BRANCH   9   3
ATOM      3  C   UNL     1      46.117  13.749  20.372  0.00  0.00    +0.095 C 
BRANCH   3   2
ATOM      1  C   UNL     1      45.375  15.995  19.565  0.00  0.00    +0.039 C 
ATOM      2  C   UNL     1      46.308  15.259  20.529  0.00  0.00    +0.021 C 
ATOM     38  C   UNL     1      45.981  15.668  21.967  0.00  0.00    +0.032 C 
ENDBRANCH   3   2
BRANCH   3   6
ATOM      6  C   UNL     1      46.136  13.098  21.730  0.00  0.00    +0.336 C 
ATOM      7  C   UNL     1      44.850  12.905  22.493  0.00  0.00    +0.072 C 
ATOM      8  O   UNL     1      47.182  12.728  22.208  0.00  0.00    -0.438 OA
ENDBRANCH   3   6
BRANCH   3   4
ATOM      4  O   UNL     1      44.862  13.492  19.738  0.00  0.00    -0.526 OA
ATOM      5  H   UNL     1      44.361  12.767  20.136  0.00  0.00    +0.382 HD
ENDBRANCH   3   4
ENDBRANCH   9   3
TORSDOF 6
ENDMDL
MODEL 9
REMARK VINA RESULT:      -5.0      2.099      4.015
REMARK  Name = ZINC95485903
REMARK  10 active torsions:
REMARK  status: ('A' for Active; 'I' for Inactive)
REMARK    1  A    between atoms: C1_1  and  C2_2
REMARK    2  A    between atoms: C2_2  and  C3_3
REMARK    3  A    between atoms: C2_2  and  C4_4
REMARK    4  A    between atoms: C4_4  and  C5_5
REMARK    5  A    between atoms: C4_4  and  C28_39
REMARK    6  A    between atoms: C4_4  and  O6_42
REMARK    7  A    between atoms: C8_11  and  O2_14
REMARK    8  A    between atoms: C22_31  and  C27_38
REMARK    9  A    between atoms: C25_34  and  O4_37
REMARK   10  A    between atoms: C28_39  and  C29_41
REMARK                            x       y       z     vdW  Elec       q    Type
REMARK                         _______ _______ _______ _____ _____    ______ ____
ROOT
ATOM      9  C   UNL     1      48.803  13.163  16.958  0.00  0.00    +0.189 C 
ATOM     10  C   UNL     1      49.484  14.042  17.994  0.00  0.00    +0.117 C 
ATOM     11  C   UNL     1      50.974  13.899  17.469  0.00  0.00    -0.004 C 
ATOM     12  C   UNL     1      51.649  14.700  18.515  0.00  0.00    -0.149 C 
ATOM     13  C   UNL     1      52.998  15.377  18.571  0.00  0.00    +0.133 C 
ATOM     14  C   UNL     1      50.908  14.182  19.794  0.00  0.00    +0.242 C 
ATOM     15  C   UNL     1      50.721  15.379  20.677  0.00  0.00    -0.039 C 
ATOM     16  C   UNL     1      51.120  16.481  20.088  0.00  0.00    -0.028 C 
ATOM     17  C   UNL     1      50.955  17.883  20.550  0.00  0.00    -0.081 C 
ATOM     18  C   UNL     1      50.489  18.090  21.963  0.00  0.00    +0.069 C 
ATOM     19  C   UNL     1      50.745  19.525  22.421  0.00  0.00    +0.026 C 
ATOM     20  C   UNL     1      50.178  20.462  21.341  0.00  0.00    +0.006 C 
ATOM     21  C   UNL     1      51.041  20.314  20.095  0.00  0.00    -0.019 C 
ATOM     22  C   UNL     1      52.422  20.895  20.402  0.00  0.00    +0.033 C 
ATOM     23  C   UNL     1      50.456  21.109  18.932  0.00  0.00    +0.030 C 
ATOM     24  C   UNL     1      49.014  20.686  18.659  0.00  0.00    -0.015 C 
ATOM     25  C   UNL     1      48.171  20.914  19.917  0.00  0.00    +0.158 C 
ATOM     28  C   UNL     1      48.726  20.066  21.063  0.00  0.00    +0.036 C 
ATOM     29  C   UNL     1      51.218  18.863  19.698  0.00  0.00    -0.068 C 
ATOM     30  C   UNL     1      51.724  18.630  18.295  0.00  0.00    +0.068 C 
ATOM     31  C   UNL     1      51.369  17.270  17.705  0.00  0.00    +0.067 C 
ATOM     32  C   UNL     1      51.731  16.201  18.734  0.00  0.00    -0.100 C 
ATOM     33  C   UNL     1      50.743  14.173  16.021  0.00  0.00    +0.373 C 
ATOM     36  O   UNL     1      49.619  13.661  19.348  0.00  0.00    -0.337 OA
ATOM     37  O   UNL     1      49.554  13.355  15.730  0.00  0.00    -0.375 OA
ENDROOT
BRANCH  25  26
ATOM     26  O   UNL     1      46.816  20.545  19.659  0.00  0.00    -0.568 OA
ATOM     27  H   UNL     1      46.629  19.607  19.804  0.00  0.00    +0.377 HD
ENDBRANCH  25  26
BRANCH  33  34
ATOM     34  O   UNL     1      51.856  13.735  15.240  0.00  0.00    -0.544 OA
ATOM     35  H   UNL     1      52.558  13.314  15.757  0.00  0.00    +0.389 HD
ENDBRANCH  33  34
BRANCH   9   3
ATOM      3  C   UNL     1      47.350  13.602  16.764  0.00  0.00    +0.095 C 
BRANCH   3   2
ATOM      1  C   UNL     1      46.563  15.971  16.882  0.00  0.00    +0.039 C 
ATOM      2  C   UNL     1      47.041  14.771  17.702  0.00  0.00    +0.021 C 
ATOM     38  C   UNL     1      45.944  14.358  18.686  0.00  0.00    +0.032 C 
ENDBRANCH   3   2
BRANCH   3   6
ATOM      6  C   UNL     1      46.431  12.450  17.077  0.00  0.00    +0.336 C 
ATOM      7  C   UNL     1      46.988  11.178  17.662  0.00  0.00    +0.072 C 
ATOM      8  O   UNL     1      45.246  12.547  16.861  0.00  0.00    -0.438 OA
ENDBRANCH   3   6
BRANCH   3   4
ATOM      4  O   UNL     1      47.154  14.013  15.410  0.00  0.00    -0.526 OA
ATOM      5  H   UNL     1      46.294  14.422  15.243  0.00  0.00    +0.382 HD
ENDBRANCH   3   4
ENDBRANCH   9   3
TORSDOF 6
ENDMDL
