MODEL 1
REMARK VINA RESULT:      -5.5      0.000      0.000
REMARK  Name = ZINC95486100
REMARK  3 active torsions:
REMARK  status: ('A' for Active; 'I' for Inactive)
REMARK    1  A    between atoms: C2_2  and  C3_3
REMARK    2  A    between atoms: C4_5  and  C16_26
REMARK    3  A    between atoms: C8_11  and  O3_20
REMARK                            x       y       z     vdW  Elec       q    Type
REMARK                         _______ _______ _______ _____ _____    ______ ____
ROOT
ATOM      3  C   UNL     1      51.978  19.783  19.365  0.00  0.00    +0.224 C 
ATOM      4  C   UNL     1      50.924  19.884  18.263  0.00  0.00    -0.048 C 
ATOM      7  C   UNL     1      49.849  20.893  18.631  0.00  0.00    +0.047 C 
ATOM      8  C   UNL     1      49.142  20.515  19.934  0.00  0.00    +0.229 C 
ATOM      9  C   UNL     1      48.638  19.058  19.875  0.00  0.00    -0.011 C 
ATOM     10  C   UNL     1      47.456  19.183  18.935  0.00  0.00    -0.222 C 
ATOM     11  C   UNL     1      47.076  20.612  19.024  0.00  0.00    +0.504 C 
ATOM     12  O   UNL     1      46.186  21.143  18.391  0.00  0.00    -0.442 OA
ATOM     13  C   UNL     1      46.890  18.228  18.200  0.00  0.00    +0.210 C 
ATOM     14  C   UNL     1      49.671  18.080  19.382  0.00  0.00    +0.187 C 
ATOM     17  O   UNL     1      47.885  21.250  19.935  0.00  0.00    -0.336 OA
ATOM     18  C   UNL     1      50.276  18.505  18.054  0.00  0.00    +0.090 C 
ATOM     19  C   UNL     1      51.408  17.537  17.738  0.00  0.00    -0.203 C 
ATOM     20  C   UNL     1      52.604  17.632  18.610  0.00  0.00    +0.521 C 
ATOM     21  O   UNL     1      53.191  16.640  18.996  0.00  0.00    -0.441 OA
ATOM     22  C   UNL     1      51.328  16.659  16.740  0.00  0.00    +0.169 C 
ATOM     23  O   UNL     1      53.012  18.880  18.955  0.00  0.00    -0.349 OA
ENDROOT
BRANCH   3   2
ATOM      1  C   UNL     1      52.649  21.608  20.842  0.00  0.00    +0.062 C 
ATOM      2  C   UNL     1      52.571  21.144  19.619  0.00  0.00    -0.032 C 
ENDBRANCH   3   2
BRANCH   4   5
ATOM      5  C   UNL     1      51.584  20.323  16.981  0.00  0.00    -0.026 C 
ATOM      6  C   UNL     1      51.177  21.410  16.374  0.00  0.00    +0.031 C 
ENDBRANCH   4   5
BRANCH  14  15
ATOM     15  O   UNL     1      49.056  16.802  19.211  0.00  0.00    -0.549 OA
ATOM     16  H   UNL     1      48.910  16.323  20.038  0.00  0.00    +0.384 HD
ENDBRANCH  14  15
TORSDOF 3
ENDMDL
MODEL 2
REMARK VINA RESULT:      -4.9      3.391      7.096
REMARK  Name = ZINC95486100
REMARK  3 active torsions:
REMARK  status: ('A' for Active; 'I' for Inactive)
REMARK    1  A    between atoms: C2_2  and  C3_3
REMARK    2  A    between atoms: C4_5  and  C16_26
REMARK    3  A    between atoms: C8_11  and  O3_20
REMARK                            x       y       z     vdW  Elec       q    Type
REMARK                         _______ _______ _______ _____ _____    ______ ____
ROOT
ATOM      3  C   UNL     1      43.853  21.185  19.482  0.00  0.00    +0.224 C 
ATOM      4  C   UNL     1      44.864  20.669  20.506  0.00  0.00    -0.048 C 
ATOM      7  C   UNL     1      46.272  21.118  20.152  0.00  0.00    +0.047 C 
ATOM      8  C   UNL     1      46.693  20.616  18.769  0.00  0.00    +0.229 C 
ATOM      9  C   UNL     1      46.475  19.093  18.656  0.00  0.00    -0.011 C 
ATOM     10  C   UNL     1      47.607  18.558  19.511  0.00  0.00    -0.222 C 
ATOM     11  C   UNL     1      48.597  19.660  19.525  0.00  0.00    +0.504 C 
ATOM     12  O   UNL     1      49.647  19.653  20.136  0.00  0.00    -0.442 OA
ATOM     13  C   UNL     1      47.691  17.373  20.110  0.00  0.00    +0.210 C 
ATOM     14  C   UNL     1      45.122  18.638  19.134  0.00  0.00    +0.187 C 
ATOM     17  O   UNL     1      48.147  20.697  18.741  0.00  0.00    -0.336 OA
ATOM     18  C   UNL     1      44.813  19.133  20.537  0.00  0.00    +0.090 C 
ATOM     19  C   UNL     1      43.372  18.752  20.848  0.00  0.00    -0.203 C 
ATOM     20  C   UNL     1      42.330  19.479  20.082  0.00  0.00    +0.521 C 
ATOM     21  O   UNL     1      41.345  18.912  19.652  0.00  0.00    -0.441 OA
ATOM     22  C   UNL     1      43.066  17.824  21.752  0.00  0.00    +0.169 C 
ATOM     23  O   UNL     1      42.531  20.807  19.885  0.00  0.00    -0.349 OA
ENDROOT
BRANCH   3   2
ATOM      1  C   UNL     1      42.871  23.394  19.140  0.00  0.00    +0.062 C 
ATOM      2  C   UNL     1      43.943  22.687  19.401  0.00  0.00    -0.032 C 
ENDBRANCH   3   2
BRANCH   4   5
ATOM      5  C   UNL     1      44.511  21.206  21.869  0.00  0.00    -0.026 C 
ATOM      6  C   UNL     1      45.353  21.981  22.505  0.00  0.00    +0.031 C 
ENDBRANCH   4   5
BRANCH  14  15
ATOM     15  O   UNL     1      45.087  17.210  19.139  0.00  0.00    -0.549 OA
ATOM     16  H   UNL     1      45.196  16.811  18.265  0.00  0.00    +0.384 HD
ENDBRANCH  14  15
TORSDOF 3
ENDMDL
MODEL 3
REMARK VINA RESULT:      -4.8      3.209      5.285
REMARK  Name = ZINC95486100
REMARK  3 active torsions:
REMARK  status: ('A' for Active; 'I' for Inactive)
REMARK    1  A    between atoms: C2_2  and  C3_3
REMARK    2  A    between atoms: C4_5  and  C16_26
REMARK    3  A    between atoms: C8_11  and  O3_20
REMARK                            x       y       z     vdW  Elec       q    Type
REMARK                         _______ _______ _______ _____ _____    ______ ____
ROOT
ATOM      3  C   UNL     1      47.317  19.885  20.121  0.00  0.00    +0.224 C 
ATOM      4  C   UNL     1      46.170  19.180  19.396  0.00  0.00    -0.048 C 
ATOM      7  C   UNL     1      45.226  20.190  18.764  0.00  0.00    +0.047 C 
ATOM      8  C   UNL     1      44.624  21.130  19.810  0.00  0.00    +0.229 C 
ATOM      9  C   UNL     1      43.996  20.324  20.966  0.00  0.00    -0.011 C 
ATOM     10  C   UNL     1      42.740  19.782  20.313  0.00  0.00    -0.222 C 
ATOM     11  C   UNL     1      42.493  20.711  19.186  0.00  0.00    +0.504 C 
ATOM     12  O   UNL     1      41.591  20.610  18.377  0.00  0.00    -0.442 OA
ATOM     13  C   UNL     1      42.026  18.717  20.669  0.00  0.00    +0.210 C 
ATOM     14  C   UNL     1      44.889  19.236  21.500  0.00  0.00    +0.187 C 
ATOM     17  O   UNL     1      43.439  21.708  19.191  0.00  0.00    -0.336 OA
ATOM     18  C   UNL     1      45.392  18.316  20.401  0.00  0.00    +0.090 C 
ATOM     19  C   UNL     1      46.401  17.364  21.029  0.00  0.00    -0.203 C 
ATOM     20  C   UNL     1      47.682  17.973  21.463  0.00  0.00    +0.521 C 
ATOM     21  O   UNL     1      48.219  17.651  22.505  0.00  0.00    -0.441 OA
ATOM     22  C   UNL     1      46.149  16.066  21.179  0.00  0.00    +0.169 C 
ATOM     23  O   UNL     1      48.225  18.907  20.641  0.00  0.00    -0.349 OA
ENDROOT
BRANCH   3   2
ATOM      1  C   UNL     1      49.355  20.786  19.124  0.00  0.00    +0.062 C 
ATOM      2  C   UNL     1      48.045  20.783  19.155  0.00  0.00    -0.032 C 
ENDBRANCH   3   2
BRANCH   4   5
ATOM      5  C   UNL     1      46.735  18.298  18.312  0.00  0.00    -0.026 C 
ATOM      6  C   UNL     1      45.938  17.525  17.617  0.00  0.00    +0.031 C 
ENDBRANCH   4   5
BRANCH  14  15
ATOM     15  O   UNL     1      44.154  18.455  22.445  0.00  0.00    -0.549 OA
ATOM     16  H   UNL     1      43.893  17.584  22.116  0.00  0.00    +0.384 HD
ENDBRANCH  14  15
TORSDOF 3
ENDMDL
MODEL 4
REMARK VINA RESULT:      -4.8      1.971      5.402
REMARK  Name = ZINC95486100
REMARK  3 active torsions:
REMARK  status: ('A' for Active; 'I' for Inactive)
REMARK    1  A    between atoms: C2_2  and  C3_3
REMARK    2  A    between atoms: C4_5  and  C16_26
REMARK    3  A    between atoms: C8_11  and  O3_20
REMARK                            x       y       z     vdW  Elec       q    Type
REMARK                         _______ _______ _______ _____ _____    ______ ____
ROOT
ATOM      3  C   UNL     1      48.246  17.228  19.994  0.00  0.00    +0.224 C 
ATOM      4  C   UNL     1      48.313  17.947  18.647  0.00  0.00    -0.048 C 
ATOM      7  C   UNL     1      49.459  17.413  17.804  0.00  0.00    +0.047 C 
ATOM      8  C   UNL     1      50.806  17.589  18.507  0.00  0.00    +0.229 C 
ATOM      9  C   UNL     1      50.994  19.051  18.962  0.00  0.00    -0.011 C 
ATOM     10  C   UNL     1      51.266  19.749  17.644  0.00  0.00    -0.222 C 
ATOM     11  C   UNL     1      51.753  18.665  16.759  0.00  0.00    +0.504 C 
ATOM     12  O   UNL     1      52.051  18.795  15.589  0.00  0.00    -0.442 OA
ATOM     13  C   UNL     1      51.104  21.037  17.351  0.00  0.00    +0.210 C 
ATOM     14  C   UNL     1      49.800  19.618  19.683  0.00  0.00    +0.187 C 
ATOM     17  O   UNL     1      51.817  17.486  17.463  0.00  0.00    -0.336 OA
ATOM     18  C   UNL     1      48.517  19.452  18.887  0.00  0.00    +0.090 C 
ATOM     19  C   UNL     1      47.367  19.911  19.773  0.00  0.00    -0.203 C 
ATOM     20  C   UNL     1      47.062  19.045  20.938  0.00  0.00    +0.521 C 
ATOM     21  O   UNL     1      46.779  19.513  22.023  0.00  0.00    -0.441 OA
ATOM     22  C   UNL     1      46.678  21.021  19.519  0.00  0.00    +0.169 C 
ATOM     23  O   UNL     1      47.114  17.703  20.733  0.00  0.00    -0.349 OA
ENDROOT
BRANCH   3   2
ATOM      1  C   UNL     1      47.269  15.046  20.487  0.00  0.00    +0.062 C 
ATOM      2  C   UNL     1      48.110  15.745  19.766  0.00  0.00    -0.032 C 
ENDBRANCH   3   2
BRANCH   4   5
ATOM      5  C   UNL     1      47.020  17.732  17.904  0.00  0.00    -0.026 C 
ATOM      6  C   UNL     1      47.040  17.284  16.673  0.00  0.00    +0.031 C 
ENDBRANCH   4   5
BRANCH  14  15
ATOM     15  O   UNL     1      50.015  21.012  19.913  0.00  0.00    -0.549 OA
ATOM     16  H   UNL     1      49.599  21.346  20.719  0.00  0.00    +0.384 HD
ENDBRANCH  14  15
TORSDOF 3
ENDMDL
MODEL 5
REMARK VINA RESULT:      -4.8      2.275      4.782
REMARK  Name = ZINC95486100
REMARK  3 active torsions:
REMARK  status: ('A' for Active; 'I' for Inactive)
REMARK    1  A    between atoms: C2_2  and  C3_3
REMARK    2  A    between atoms: C4_5  and  C16_26
REMARK    3  A    between atoms: C8_11  and  O3_20
REMARK                            x       y       z     vdW  Elec       q    Type
REMARK                         _______ _______ _______ _____ _____    ______ ____
ROOT
ATOM      3  C   UNL     1      50.583  16.099  18.413  0.00  0.00    +0.224 C 
ATOM      4  C   UNL     1      49.951  17.489  18.345  0.00  0.00    -0.048 C 
ATOM      7  C   UNL     1      50.362  18.209  17.071  0.00  0.00    +0.047 C 
ATOM      8  C   UNL     1      51.880  18.370  16.978  0.00  0.00    +0.229 C 
ATOM      9  C   UNL     1      52.437  19.011  18.266  0.00  0.00    -0.011 C 
ATOM     10  C   UNL     1      51.987  20.450  18.110  0.00  0.00    -0.222 C 
ATOM     11  C   UNL     1      51.779  20.604  16.652  0.00  0.00    +0.504 C 
ATOM     12  O   UNL     1      51.377  21.610  16.102  0.00  0.00    -0.442 OA
ATOM     13  C   UNL     1      51.819  21.363  19.064  0.00  0.00    +0.210 C 
ATOM     14  C   UNL     1      51.922  18.375  19.530  0.00  0.00    +0.187 C 
ATOM     17  O   UNL     1      52.110  19.434  16.010  0.00  0.00    -0.336 OA
ATOM     18  C   UNL     1      50.404  18.311  19.562  0.00  0.00    +0.090 C 
ATOM     19  C   UNL     1      50.007  17.514  20.797  0.00  0.00    -0.203 C 
ATOM     20  C   UNL     1      50.327  16.066  20.764  0.00  0.00    +0.521 C 
ATOM     21  O   UNL     1      50.754  15.485  21.742  0.00  0.00    -0.441 OA
ATOM     22  C   UNL     1      49.411  18.082  21.843  0.00  0.00    +0.169 C 
ATOM     23  O   UNL     1      50.119  15.421  19.587  0.00  0.00    -0.349 OA
ENDROOT
BRANCH   3   2
ATOM      1  C   UNL     1      51.085  14.566  16.580  0.00  0.00    +0.062 C 
ATOM      2  C   UNL     1      50.195  15.309  17.191  0.00  0.00    -0.032 C 
ENDBRANCH   3   2
BRANCH   4   5
ATOM      5  C   UNL     1      48.450  17.354  18.366  0.00  0.00    -0.026 C 
ATOM      6  C   UNL     1      47.696  18.420  18.259  0.00  0.00    +0.031 C 
ENDBRANCH   4   5
BRANCH  14  15
ATOM     15  O   UNL     1      52.367  19.142  20.650  0.00  0.00    -0.549 OA
ATOM     16  H   UNL     1      53.266  18.933  20.937  0.00  0.00    +0.384 HD
ENDBRANCH  14  15
TORSDOF 3
ENDMDL
MODEL 6
REMARK VINA RESULT:      -4.7      1.537      5.002
REMARK  Name = ZINC95486100
REMARK  3 active torsions:
REMARK  status: ('A' for Active; 'I' for Inactive)
REMARK    1  A    between atoms: C2_2  and  C3_3
REMARK    2  A    between atoms: C4_5  and  C16_26
REMARK    3  A    between atoms: C8_11  and  O3_20
REMARK                            x       y       z     vdW  Elec       q    Type
REMARK                         _______ _______ _______ _____ _____    ______ ____
ROOT
ATOM      3  C   UNL     1      50.702  20.225  17.989  0.00  0.00    +0.224 C 
ATOM      4  C   UNL     1      51.453  20.041  19.308  0.00  0.00    -0.048 C 
ATOM      7  C   UNL     1      52.660  19.137  19.124  0.00  0.00    +0.047 C 
ATOM      8  C   UNL     1      52.257  17.755  18.606  0.00  0.00    +0.229 C 
ATOM      9  C   UNL     1      51.151  17.146  19.492  0.00  0.00    -0.011 C 
ATOM     10  C   UNL     1      51.929  16.770  20.737  0.00  0.00    -0.222 C 
ATOM     11  C   UNL     1      53.327  16.652  20.263  0.00  0.00    +0.504 C 
ATOM     12  O   UNL     1      54.287  16.398  20.964  0.00  0.00    -0.442 OA
ATOM     13  C   UNL     1      51.463  16.587  21.970  0.00  0.00    +0.210 C 
ATOM     14  C   UNL     1      50.017  18.095  19.781  0.00  0.00    +0.187 C 
ATOM     17  O   UNL     1      53.377  16.874  18.907  0.00  0.00    -0.336 OA
ATOM     18  C   UNL     1      50.505  19.418  20.346  0.00  0.00    +0.090 C 
ATOM     19  C   UNL     1      49.300  20.343  20.447  0.00  0.00    -0.203 C 
ATOM     20  C   UNL     1      48.731  20.807  19.158  0.00  0.00    +0.521 C 
ATOM     21  O   UNL     1      47.530  20.886  18.984  0.00  0.00    -0.441 OA
ATOM     22  C   UNL     1      48.790  20.713  21.619  0.00  0.00    +0.169 C 
ATOM     23  O   UNL     1      49.615  21.138  18.182  0.00  0.00    -0.349 OA
ENDROOT
BRANCH   3   2
ATOM      1  C   UNL     1      51.758  20.180  15.788  0.00  0.00    +0.062 C 
ATOM      2  C   UNL     1      51.642  20.777  16.949  0.00  0.00    -0.032 C 
ENDBRANCH   3   2
BRANCH   4   5
ATOM      5  C   UNL     1      51.921  21.384  19.806  0.00  0.00    -0.026 C 
ATOM      6  C   UNL     1      52.613  21.466  20.915  0.00  0.00    +0.031 C 
ENDBRANCH   4   5
BRANCH  14  15
ATOM     15  O   UNL     1      49.138  17.491  20.733  0.00  0.00    -0.549 OA
ATOM     16  H   UNL     1      48.427  18.072  21.035  0.00  0.00    +0.384 HD
ENDBRANCH  14  15
TORSDOF 3
ENDMDL
MODEL 7
REMARK VINA RESULT:      -4.7      5.684      8.399
REMARK  Name = ZINC95486100
REMARK  3 active torsions:
REMARK  status: ('A' for Active; 'I' for Inactive)
REMARK    1  A    between atoms: C2_2  and  C3_3
REMARK    2  A    between atoms: C4_5  and  C16_26
REMARK    3  A    between atoms: C8_11  and  O3_20
REMARK                            x       y       z     vdW  Elec       q    Type
REMARK                         _______ _______ _______ _____ _____    ______ ____
ROOT
ATOM      3  C   UNL     1      47.072  11.552  15.569  0.00  0.00    +0.224 C 
ATOM      4  C   UNL     1      47.690  11.757  16.952  0.00  0.00    -0.048 C 
ATOM      7  C   UNL     1      46.615  11.801  18.025  0.00  0.00    +0.047 C 
ATOM      8  C   UNL     1      45.615  12.932  17.776  0.00  0.00    +0.229 C 
ATOM      9  C   UNL     1      46.351  14.272  17.573  0.00  0.00    -0.011 C 
ATOM     10  C   UNL     1      46.798  14.592  18.986  0.00  0.00    -0.222 C 
ATOM     11  C   UNL     1      45.866  13.818  19.839  0.00  0.00    +0.504 C 
ATOM     12  O   UNL     1      45.903  13.767  21.053  0.00  0.00    -0.442 OA
ATOM     13  C   UNL     1      47.796  15.384  19.371  0.00  0.00    +0.210 C 
ATOM     14  C   UNL     1      47.503  14.190  16.606  0.00  0.00    +0.187 C 
ATOM     17  O   UNL     1      44.949  13.165  19.050  0.00  0.00    -0.336 OA
ATOM     18  C   UNL     1      48.475  13.079  16.964  0.00  0.00    +0.090 C 
ATOM     19  C   UNL     1      49.498  12.988  15.840  0.00  0.00    -0.203 C 
ATOM     20  C   UNL     1      48.990  12.479  14.542  0.00  0.00    +0.521 C 
ATOM     21  O   UNL     1      49.342  12.967  13.486  0.00  0.00    -0.441 OA
ATOM     22  C   UNL     1      50.769  13.343  16.011  0.00  0.00    +0.169 C 
ATOM     23  O   UNL     1      48.115  11.442  14.592  0.00  0.00    -0.349 OA
ENDROOT
BRANCH   3   2
ATOM      1  C   UNL     1      45.071  10.277  14.996  0.00  0.00    +0.062 C 
ATOM      2  C   UNL     1      46.249  10.290  15.568  0.00  0.00    -0.032 C 
ENDBRANCH   3   2
BRANCH   4   5
ATOM      5  C   UNL     1      48.630  10.617  17.251  0.00  0.00    -0.026 C 
ATOM      6  C   UNL     1      49.105  10.462  18.462  0.00  0.00    +0.031 C 
ENDBRANCH   4   5
BRANCH  14  15
ATOM     15  O   UNL     1      48.209  15.432  16.618  0.00  0.00    -0.549 OA
ATOM     16  H   UNL     1      48.040  15.972  17.401  0.00  0.00    +0.384 HD
ENDBRANCH  14  15
TORSDOF 3
ENDMDL
MODEL 8
REMARK VINA RESULT:      -4.7      1.916      3.906
REMARK  Name = ZINC95486100
REMARK  3 active torsions:
REMARK  status: ('A' for Active; 'I' for Inactive)
REMARK    1  A    between atoms: C2_2  and  C3_3
REMARK    2  A    between atoms: C4_5  and  C16_26
REMARK    3  A    between atoms: C8_11  and  O3_20
REMARK                            x       y       z     vdW  Elec       q    Type
REMARK                         _______ _______ _______ _____ _____    ______ ____
ROOT
ATOM      3  C   UNL     1      51.649  19.831  18.036  0.00  0.00    +0.224 C 
ATOM      4  C   UNL     1      51.515  18.594  18.923  0.00  0.00    -0.048 C 
ATOM      7  C   UNL     1      50.478  17.634  18.362  0.00  0.00    +0.047 C 
ATOM      8  C   UNL     1      49.102  18.293  18.249  0.00  0.00    +0.229 C 
ATOM      9  C   UNL     1      48.697  18.936  19.591  0.00  0.00    -0.011 C 
ATOM     10  C   UNL     1      48.361  17.715  20.425  0.00  0.00    -0.222 C 
ATOM     11  C   UNL     1      48.057  16.669  19.422  0.00  0.00    +0.504 C 
ATOM     12  O   UNL     1      47.773  15.515  19.675  0.00  0.00    -0.442 OA
ATOM     13  C   UNL     1      48.345  17.609  21.752  0.00  0.00    +0.210 C 
ATOM     14  C   UNL     1      49.779  19.781  20.208  0.00  0.00    +0.187 C 
ATOM     17  O   UNL     1      48.143  17.200  18.157  0.00  0.00    -0.336 OA
ATOM     18  C   UNL     1      51.092  19.029  20.336  0.00  0.00    +0.090 C 
ATOM     19  C   UNL     1      52.142  20.021  20.818  0.00  0.00    -0.203 C 
ATOM     20  C   UNL     1      52.538  21.068  19.844  0.00  0.00    +0.521 C 
ATOM     21  O   UNL     1      52.723  22.219  20.188  0.00  0.00    -0.441 OA
ATOM     22  C   UNL     1      52.672  19.952  22.037  0.00  0.00    +0.169 C 
ATOM     23  O   UNL     1      52.683  20.678  18.552  0.00  0.00    -0.349 OA
ENDROOT
BRANCH   3   2
ATOM      1  C   UNL     1      51.722  20.194  15.622  0.00  0.00    +0.062 C 
ATOM      2  C   UNL     1      52.001  19.408  16.633  0.00  0.00    -0.032 C 
ENDBRANCH   3   2
BRANCH   4   5
ATOM      5  C   UNL     1      52.844  17.887  18.996  0.00  0.00    -0.026 C 
ATOM      6  C   UNL     1      52.893  16.579  18.938  0.00  0.00    +0.031 C 
ENDBRANCH   4   5
BRANCH  14  15
ATOM     15  O   UNL     1      49.362  20.190  21.512  0.00  0.00    -0.549 OA
ATOM     16  H   UNL     1      48.645  19.657  21.881  0.00  0.00    +0.384 HD
ENDBRANCH  14  15
TORSDOF 3
ENDMDL
MODEL 9
REMARK VINA RESULT:      -4.6      4.374      6.197
REMARK  Name = ZINC95486100
REMARK  3 active torsions:
REMARK  status: ('A' for Active; 'I' for Inactive)
REMARK    1  A    between atoms: C2_2  and  C3_3
REMARK    2  A    between atoms: C4_5  and  C16_26
REMARK    3  A    between atoms: C8_11  and  O3_20
REMARK                            x       y       z     vdW  Elec       q    Type
REMARK                         _______ _______ _______ _____ _____    ______ ____
ROOT
ATOM      3  C   UNL     1      45.094  16.028  20.863  0.00  0.00    +0.224 C 
ATOM      4  C   UNL     1      45.981  17.259  21.049  0.00  0.00    -0.048 C 
ATOM      7  C   UNL     1      45.249  18.344  21.822  0.00  0.00    +0.047 C 
ATOM      8  C   UNL     1      43.970  18.781  21.105  0.00  0.00    +0.229 C 
ATOM      9  C   UNL     1      44.269  19.153  19.639  0.00  0.00    -0.011 C 
ATOM     10  C   UNL     1      44.976  20.484  19.800  0.00  0.00    -0.222 C 
ATOM     11  C   UNL     1      44.524  20.972  21.123  0.00  0.00    +0.504 C 
ATOM     12  O   UNL     1      44.889  22.001  21.654  0.00  0.00    -0.442 OA
ATOM     13  C   UNL     1      45.810  21.077  18.948  0.00  0.00    +0.210 C 
ATOM     14  C   UNL     1      45.110  18.133  18.916  0.00  0.00    +0.187 C 
ATOM     17  O   UNL     1      43.625  20.082  21.662  0.00  0.00    -0.336 OA
ATOM     18  C   UNL     1      46.387  17.804  19.670  0.00  0.00    +0.090 C 
ATOM     19  C   UNL     1      47.069  16.659  18.933  0.00  0.00    -0.203 C 
ATOM     20  C   UNL     1      46.383  15.346  19.001  0.00  0.00    +0.521 C 
ATOM     21  O   UNL     1      46.312  14.614  18.033  0.00  0.00    -0.441 OA
ATOM     22  C   UNL     1      48.211  16.826  18.270  0.00  0.00    +0.169 C 
ATOM     23  O   UNL     1      45.838  15.001  20.196  0.00  0.00    -0.349 OA
ENDROOT
BRANCH   3   2
ATOM      1  C   UNL     1      44.750  14.256  22.505  0.00  0.00    +0.062 C 
ATOM      2  C   UNL     1      44.641  15.527  22.209  0.00  0.00    -0.032 C 
ENDBRANCH   3   2
BRANCH   4   5
ATOM      5  C   UNL     1      47.220  16.869  21.814  0.00  0.00    -0.026 C 
ATOM      6  C   UNL     1      47.994  17.795  22.323  0.00  0.00    +0.031 C 
ENDBRANCH   4   5
BRANCH  14  15
ATOM     15  O   UNL     1      45.462  18.649  17.631  0.00  0.00    -0.549 OA
ATOM     16  H   UNL     1      44.711  18.986  17.123  0.00  0.00    +0.384 HD
ENDBRANCH  14  15
TORSDOF 3
ENDMDL
