MODEL 1
REMARK VINA RESULT:      -6.5      0.000      0.000
REMARK  Name = ZINC04245684
REMARK  10 active torsions:
REMARK  status: ('A' for Active; 'I' for Inactive)
REMARK    1  A    between atoms: C3_3  and  O10_36
REMARK    2  A    between atoms: C6_6  and  C7_7
REMARK    3  A    between atoms: C11_12  and  O9_35
REMARK    4  A    between atoms: C13_14  and  O8_34
REMARK    5  A    between atoms: C14_15  and  C16_18
REMARK    6  A    between atoms: C17_20  and  O7_33
REMARK    7  A    between atoms: C18_22  and  O6_32
REMARK    8  A    between atoms: C19_24  and  O5_31
REMARK    9  A    between atoms: C20_26  and  C21_29
REMARK   10  A    between atoms: C21_29  and  O4_30
REMARK                            x       y       z     vdW  Elec       q    Type
REMARK                         _______ _______ _______ _____ _____    ______ ____
ROOT
ATOM      9  C   UNL     1      46.454  16.708  18.437  0.00  0.00    +0.211 A 
ATOM     10  C   UNL     1      46.049  15.448  18.126  0.00  0.00    -0.148 A 
ATOM     11  C   UNL     1      46.992  14.515  17.630  0.00  0.00    +0.425 A 
ATOM     12  C   UNL     1      48.383  14.974  17.477  0.00  0.00    -0.267 A 
ATOM     13  C   UNL     1      49.381  14.118  16.994  0.00  0.00    +0.226 A 
ATOM     16  C   UNL     1      50.675  14.587  16.865  0.00  0.00    -0.057 A 
ATOM     17  C   UNL     1      50.981  15.898  17.214  0.00  0.00    +0.217 A 
ATOM     20  C   UNL     1      49.998  16.750  17.693  0.00  0.00    -0.142 A 
ATOM     36  C   UNL     1      48.695  16.298  17.829  0.00  0.00    +0.208 A 
ATOM     37  O   UNL     1      46.663  13.376  17.339  0.00  0.00    -0.455 OA
ATOM     38  O   UNL     1      47.725  17.116  18.289  0.00  0.00    -0.212 OA
ENDROOT
BRANCH   9   8
ATOM      1  C   UNL     1      44.677  17.335  20.064  0.00  0.00    +0.079 A 
ATOM      2  C   UNL     1      43.748  18.233  20.542  0.00  0.00    -0.012 A 
ATOM      3  C   UNL     1      43.586  19.465  19.921  0.00  0.00    +0.135 A 
ATOM      6  C   UNL     1      44.361  19.799  18.816  0.00  0.00    -0.006 A 
ATOM      7  C   UNL     1      45.292  18.907  18.332  0.00  0.00    +0.080 A 
ATOM      8  C   UNL     1      45.458  17.666  18.953  0.00  0.00    -0.083 A 
BRANCH   3   4
ATOM      4  O   UNL     1      42.669  20.348  20.396  0.00  0.00    -0.497 OA
ATOM      5  H   UNL     1      42.181  20.030  21.168  0.00  0.00    +0.398 HD
ENDBRANCH   3   4
ENDBRANCH   9   8
BRANCH  20  21
ATOM     21  C   UNL     1      50.347  18.167  18.066  0.00  0.00    +0.242 C 
ATOM     22  C   UNL     1      51.203  18.165  19.337  0.00  0.00    +0.179 C 
ATOM     25  C   UNL     1      51.603  19.604  19.675  0.00  0.00    +0.117 C 
ATOM     28  C   UNL     1      52.340  20.213  18.479  0.00  0.00    +0.131 C 
ATOM     31  C   UNL     1      51.440  20.136  17.242  0.00  0.00    +0.182 C 
ATOM     35  O   UNL     1      51.080  18.775  17.001  0.00  0.00    -0.345 OA
BRANCH  22  23
ATOM     23  O   UNL     1      50.451  17.609  20.417  0.00  0.00    -0.549 OA
ATOM     24  H   UNL     1      50.741  17.906  21.291  0.00  0.00    +0.390 HD
ENDBRANCH  22  23
BRANCH  25  26
ATOM     26  O   UNL     1      52.460  19.605  20.819  0.00  0.00    -0.556 OA
ATOM     27  H   UNL     1      52.018  19.356  21.642  0.00  0.00    +0.383 HD
ENDBRANCH  25  26
BRANCH  28  29
ATOM     29  O   UNL     1      52.655  21.579  18.756  0.00  0.00    -0.553 OA
ATOM     30  H   UNL     1      53.429  21.909  18.277  0.00  0.00    +0.383 HD
ENDBRANCH  28  29
BRANCH  31  32
ATOM     32  C   UNL     1      52.192  20.688  16.030  0.00  0.00    +0.220 C 
BRANCH  32  33
ATOM     33  O   UNL     1      51.738  22.015  15.752  0.00  0.00    -0.567 OA
ATOM     34  H   UNL     1      52.418  22.593  15.379  0.00  0.00    +0.384 HD
ENDBRANCH  32  33
ENDBRANCH  31  32
ENDBRANCH  20  21
BRANCH  13  14
ATOM     14  O   UNL     1      49.080  12.839  16.654  0.00  0.00    -0.471 OA
ATOM     15  H   UNL     1      49.060  12.680  15.701  0.00  0.00    +0.403 HD
ENDBRANCH  13  14
BRANCH  17  18
ATOM     18  O   UNL     1      52.256  16.347  17.084  0.00  0.00    -0.480 OA
ATOM     19  H   UNL     1      52.739  15.951  16.345  0.00  0.00    +0.406 HD
ENDBRANCH  17  18
TORSDOF 10
ENDMDL
MODEL 2
REMARK VINA RESULT:      -6.2      1.923      5.889
REMARK  Name = ZINC04245684
REMARK  10 active torsions:
REMARK  status: ('A' for Active; 'I' for Inactive)
REMARK    1  A    between atoms: C3_3  and  O10_36
REMARK    2  A    between atoms: C6_6  and  C7_7
REMARK    3  A    between atoms: C11_12  and  O9_35
REMARK    4  A    between atoms: C13_14  and  O8_34
REMARK    5  A    between atoms: C14_15  and  C16_18
REMARK    6  A    between atoms: C17_20  and  O7_33
REMARK    7  A    between atoms: C18_22  and  O6_32
REMARK    8  A    between atoms: C19_24  and  O5_31
REMARK    9  A    between atoms: C20_26  and  C21_29
REMARK   10  A    between atoms: C21_29  and  O4_30
REMARK                            x       y       z     vdW  Elec       q    Type
REMARK                         _______ _______ _______ _____ _____    ______ ____
ROOT
ATOM      9  C   UNL     1      48.042  20.009  19.018  0.00  0.00    +0.211 A 
ATOM     10  C   UNL     1      49.026  20.948  19.019  0.00  0.00    -0.148 A 
ATOM     11  C   UNL     1      50.367  20.552  18.798  0.00  0.00    +0.425 A 
ATOM     12  C   UNL     1      50.623  19.119  18.575  0.00  0.00    -0.267 A 
ATOM     13  C   UNL     1      51.919  18.639  18.349  0.00  0.00    +0.226 A 
ATOM     16  C   UNL     1      52.118  17.287  18.144  0.00  0.00    -0.057 A 
ATOM     17  C   UNL     1      51.038  16.411  18.163  0.00  0.00    +0.217 A 
ATOM     20  C   UNL     1      49.753  16.880  18.387  0.00  0.00    -0.142 A 
ATOM     36  C   UNL     1      49.533  18.233  18.594  0.00  0.00    +0.208 A 
ATOM     37  O   UNL     1      51.276  21.368  18.793  0.00  0.00    -0.455 OA
ATOM     38  O   UNL     1      48.289  18.704  18.818  0.00  0.00    -0.212 OA
ENDROOT
BRANCH   9   8
ATOM      1  C   UNL     1      45.599  19.803  18.583  0.00  0.00    +0.079 A 
ATOM      2  C   UNL     1      44.301  20.209  18.804  0.00  0.00    -0.012 A 
ATOM      3  C   UNL     1      44.036  21.248  19.687  0.00  0.00    +0.135 A 
ATOM      6  C   UNL     1      45.079  21.883  20.353  0.00  0.00    -0.006 A 
ATOM      7  C   UNL     1      46.379  21.484  20.138  0.00  0.00    +0.080 A 
ATOM      8  C   UNL     1      46.650  20.440  19.250  0.00  0.00    -0.083 A 
BRANCH   3   4
ATOM      4  O   UNL     1      42.755  21.645  19.901  0.00  0.00    -0.497 OA
ATOM      5  H   UNL     1      42.217  21.687  19.098  0.00  0.00    +0.398 HD
ENDBRANCH   3   4
ENDBRANCH   9   8
BRANCH  20  21
ATOM     21  C   UNL     1      48.594  15.917  18.405  0.00  0.00    +0.242 C 
ATOM     22  C   UNL     1      48.140  15.637  16.969  0.00  0.00    +0.179 C 
ATOM     25  C   UNL     1      47.002  14.613  16.992  0.00  0.00    +0.117 C 
ATOM     28  C   UNL     1      47.483  13.347  17.708  0.00  0.00    +0.131 C 
ATOM     31  C   UNL     1      47.961  13.715  19.115  0.00  0.00    +0.182 C 
ATOM     35  O   UNL     1      48.998  14.694  19.022  0.00  0.00    -0.345 OA
BRANCH  22  23
ATOM     23  O   UNL     1      47.682  16.849  16.368  0.00  0.00    -0.549 OA
ATOM     24  H   UNL     1      46.743  16.842  16.135  0.00  0.00    +0.390 HD
ENDBRANCH  22  23
BRANCH  25  26
ATOM     26  O   UNL     1      46.620  14.291  15.653  0.00  0.00    -0.556 OA
ATOM     27  H   UNL     1      47.341  14.362  15.011  0.00  0.00    +0.383 HD
ENDBRANCH  25  26
BRANCH  28  29
ATOM     29  O   UNL     1      46.407  12.411  17.798  0.00  0.00    -0.553 OA
ATOM     30  H   UNL     1      46.581  11.567  17.357  0.00  0.00    +0.383 HD
ENDBRANCH  28  29
BRANCH  31  32
ATOM     32  C   UNL     1      48.498  12.466  19.815  0.00  0.00    +0.220 C 
BRANCH  32  33
ATOM     33  O   UNL     1      48.920  11.515  18.833  0.00  0.00    -0.567 OA
ATOM     34  H   UNL     1      48.564  10.626  18.969  0.00  0.00    +0.384 HD
ENDBRANCH  32  33
ENDBRANCH  31  32
ENDBRANCH  20  21
BRANCH  13  14
ATOM     14  O   UNL     1      52.972  19.496  18.331  0.00  0.00    -0.471 OA
ATOM     15  H   UNL     1      53.068  20.018  19.138  0.00  0.00    +0.403 HD
ENDBRANCH  13  14
BRANCH  17  18
ATOM     18  O   UNL     1      51.245  15.084  17.961  0.00  0.00    -0.480 OA
ATOM     19  H   UNL     1      51.878  14.687  18.575  0.00  0.00    +0.406 HD
ENDBRANCH  17  18
TORSDOF 10
ENDMDL
MODEL 3
REMARK VINA RESULT:      -6.1      3.359      6.675
REMARK  Name = ZINC04245684
REMARK  10 active torsions:
REMARK  status: ('A' for Active; 'I' for Inactive)
REMARK    1  A    between atoms: C3_3  and  O10_36
REMARK    2  A    between atoms: C6_6  and  C7_7
REMARK    3  A    between atoms: C11_12  and  O9_35
REMARK    4  A    between atoms: C13_14  and  O8_34
REMARK    5  A    between atoms: C14_15  and  C16_18
REMARK    6  A    between atoms: C17_20  and  O7_33
REMARK    7  A    between atoms: C18_22  and  O6_32
REMARK    8  A    between atoms: C19_24  and  O5_31
REMARK    9  A    between atoms: C20_26  and  C21_29
REMARK   10  A    between atoms: C21_29  and  O4_30
REMARK                            x       y       z     vdW  Elec       q    Type
REMARK                         _______ _______ _______ _____ _____    ______ ____
ROOT
ATOM      9  C   UNL     1      44.371  21.014  20.019  0.00  0.00    +0.211 A 
ATOM     10  C   UNL     1      44.845  22.118  20.655  0.00  0.00    -0.148 A 
ATOM     11  C   UNL     1      46.154  22.105  21.194  0.00  0.00    +0.425 A 
ATOM     12  C   UNL     1      46.942  20.871  21.031  0.00  0.00    -0.267 A 
ATOM     13  C   UNL     1      48.246  20.769  21.532  0.00  0.00    +0.226 A 
ATOM     16  C   UNL     1      48.951  19.594  21.359  0.00  0.00    -0.057 A 
ATOM     17  C   UNL     1      48.370  18.522  20.690  0.00  0.00    +0.217 A 
ATOM     20  C   UNL     1      47.080  18.616  20.191  0.00  0.00    -0.142 A 
ATOM     36  C   UNL     1      46.356  19.787  20.355  0.00  0.00    +0.208 A 
ATOM     37  O   UNL     1      46.612  23.078  21.772  0.00  0.00    -0.455 OA
ATOM     38  O   UNL     1      45.097  19.893  19.881  0.00  0.00    -0.212 OA
ENDROOT
BRANCH   9   8
ATOM      1  C   UNL     1      42.292  19.857  19.285  0.00  0.00    +0.079 A 
ATOM      2  C   UNL     1      41.017  19.893  18.767  0.00  0.00    -0.012 A 
ATOM      3  C   UNL     1      40.438  21.108  18.423  0.00  0.00    +0.135 A 
ATOM      6  C   UNL     1      41.142  22.294  18.601  0.00  0.00    -0.006 A 
ATOM      7  C   UNL     1      42.418  22.267  19.118  0.00  0.00    +0.080 A 
ATOM      8  C   UNL     1      43.005  21.046  19.464  0.00  0.00    -0.083 A 
BRANCH   3   4
ATOM      4  O   UNL     1      39.179  21.138  17.912  0.00  0.00    -0.497 OA
ATOM      5  H   UNL     1      39.032  21.849  17.273  0.00  0.00    +0.398 HD
ENDBRANCH   3   4
ENDBRANCH   9   8
BRANCH  20  21
ATOM     21  C   UNL     1      46.465  17.445  19.470  0.00  0.00    +0.242 C 
ATOM     22  C   UNL     1      46.789  17.537  17.976  0.00  0.00    +0.179 C 
ATOM     25  C   UNL     1      46.211  16.313  17.260  0.00  0.00    +0.117 C 
ATOM     28  C   UNL     1      46.781  15.044  17.901  0.00  0.00    +0.131 C 
ATOM     31  C   UNL     1      46.457  15.047  19.398  0.00  0.00    +0.182 C 
ATOM     35  O   UNL     1      46.996  16.227  19.997  0.00  0.00    -0.345 OA
BRANCH  22  23
ATOM     23  O   UNL     1      46.211  18.726  17.435  0.00  0.00    -0.549 OA
ATOM     24  H   UNL     1      46.187  18.747  16.468  0.00  0.00    +0.390 HD
ENDBRANCH  22  23
BRANCH  25  26
ATOM     26  O   UNL     1      46.571  16.355  15.877  0.00  0.00    -0.556 OA
ATOM     27  H   UNL     1      47.450  16.720  15.710  0.00  0.00    +0.383 HD
ENDBRANCH  25  26
BRANCH  28  29
ATOM     29  O   UNL     1      46.194  13.894  17.288  0.00  0.00    -0.553 OA
ATOM     30  H   UNL     1      46.176  13.111  17.857  0.00  0.00    +0.383 HD
ENDBRANCH  28  29
BRANCH  31  32
ATOM     32  C   UNL     1      47.073  13.812  20.056  0.00  0.00    +0.220 C 
BRANCH  32  33
ATOM     33  O   UNL     1      48.173  13.351  19.267  0.00  0.00    -0.567 OA
ATOM     34  H   UNL     1      48.685  14.061  18.855  0.00  0.00    +0.384 HD
ENDBRANCH  32  33
ENDBRANCH  31  32
ENDBRANCH  20  21
BRANCH  13  14
ATOM     14  O   UNL     1      48.811  21.817  22.184  0.00  0.00    -0.471 OA
ATOM     15  H   UNL     1      49.038  21.631  23.105  0.00  0.00    +0.403 HD
ENDBRANCH  13  14
BRANCH  17  18
ATOM     18  O   UNL     1      49.073  17.372  20.525  0.00  0.00    -0.480 OA
ATOM     19  H   UNL     1      49.378  17.224  19.619  0.00  0.00    +0.406 HD
ENDBRANCH  17  18
TORSDOF 10
ENDMDL
MODEL 4
REMARK VINA RESULT:      -6.1      4.236      7.560
REMARK  Name = ZINC04245684
REMARK  10 active torsions:
REMARK  status: ('A' for Active; 'I' for Inactive)
REMARK    1  A    between atoms: C3_3  and  O10_36
REMARK    2  A    between atoms: C6_6  and  C7_7
REMARK    3  A    between atoms: C11_12  and  O9_35
REMARK    4  A    between atoms: C13_14  and  O8_34
REMARK    5  A    between atoms: C14_15  and  C16_18
REMARK    6  A    between atoms: C17_20  and  O7_33
REMARK    7  A    between atoms: C18_22  and  O6_32
REMARK    8  A    between atoms: C19_24  and  O5_31
REMARK    9  A    between atoms: C20_26  and  C21_29
REMARK   10  A    between atoms: C21_29  and  O4_30
REMARK                            x       y       z     vdW  Elec       q    Type
REMARK                         _______ _______ _______ _____ _____    ______ ____
ROOT
ATOM      9  C   UNL     1      52.392  16.668  18.129  0.00  0.00    +0.211 A 
ATOM     10  C   UNL     1      53.256  16.549  19.172  0.00  0.00    -0.148 A 
ATOM     11  C   UNL     1      53.462  15.280  19.766  0.00  0.00    +0.425 A 
ATOM     12  C   UNL     1      52.716  14.141  19.207  0.00  0.00    -0.267 A 
ATOM     13  C   UNL     1      52.858  12.850  19.732  0.00  0.00    +0.226 A 
ATOM     16  C   UNL     1      52.139  11.807  19.179  0.00  0.00    -0.057 A 
ATOM     17  C   UNL     1      51.281  12.040  18.110  0.00  0.00    +0.217 A 
ATOM     20  C   UNL     1      51.135  13.315  17.585  0.00  0.00    -0.142 A 
ATOM     36  C   UNL     1      51.848  14.373  18.126  0.00  0.00    +0.208 A 
ATOM     37  O   UNL     1      54.229  15.137  20.705  0.00  0.00    -0.455 OA
ATOM     38  O   UNL     1      51.713  15.622  17.631  0.00  0.00    -0.212 OA
ENDROOT
BRANCH   9   8
ATOM      1  C   UNL     1      52.423  19.153  18.276  0.00  0.00    +0.079 A 
ATOM      2  C   UNL     1      52.233  20.392  17.706  0.00  0.00    -0.012 A 
ATOM      3  C   UNL     1      51.810  20.496  16.387  0.00  0.00    +0.135 A 
ATOM      6  C   UNL     1      51.578  19.350  15.635  0.00  0.00    -0.006 A 
ATOM      7  C   UNL     1      51.766  18.107  16.197  0.00  0.00    +0.080 A 
ATOM      8  C   UNL     1      52.189  17.998  17.524  0.00  0.00    -0.083 A 
BRANCH   3   4
ATOM      4  O   UNL     1      51.624  21.721  15.830  0.00  0.00    -0.497 OA
ATOM      5  H   UNL     1      50.736  21.859  15.473  0.00  0.00    +0.398 HD
ENDBRANCH   3   4
ENDBRANCH   9   8
BRANCH  20  21
ATOM     21  C   UNL     1      50.201  13.549  16.427  0.00  0.00    +0.242 C 
ATOM     22  C   UNL     1      50.692  12.764  15.207  0.00  0.00    +0.179 C 
ATOM     25  C   UNL     1      49.705  12.960  14.053  0.00  0.00    +0.117 C 
ATOM     28  C   UNL     1      48.311  12.518  14.506  0.00  0.00    +0.131 C 
ATOM     31  C   UNL     1      47.911  13.313  15.752  0.00  0.00    +0.182 C 
ATOM     35  O   UNL     1      48.886  13.111  16.776  0.00  0.00    -0.345 OA
BRANCH  22  23
ATOM     23  O   UNL     1      51.982  13.239  14.821  0.00  0.00    -0.549 OA
ATOM     24  H   UNL     1      51.988  13.724  13.984  0.00  0.00    +0.390 HD
ENDBRANCH  22  23
BRANCH  25  26
ATOM     26  O   UNL     1      50.118  12.173  12.933  0.00  0.00    -0.556 OA
ATOM     27  H   UNL     1      50.892  12.522  12.470  0.00  0.00    +0.383 HD
ENDBRANCH  25  26
BRANCH  28  29
ATOM     29  O   UNL     1      47.368  12.763  13.460  0.00  0.00    -0.553 OA
ATOM     30  H   UNL     1      47.417  12.128  12.731  0.00  0.00    +0.383 HD
ENDBRANCH  28  29
BRANCH  31  32
ATOM     32  C   UNL     1      46.545  12.836  16.246  0.00  0.00    +0.220 C 
BRANCH  32  33
ATOM     33  O   UNL     1      46.214  11.598  15.610  0.00  0.00    -0.567 OA
ATOM     34  H   UNL     1      45.379  11.618  15.123  0.00  0.00    +0.384 HD
ENDBRANCH  32  33
ENDBRANCH  31  32
ENDBRANCH  20  21
BRANCH  13  14
ATOM     14  O   UNL     1      53.696  12.626  20.776  0.00  0.00    -0.471 OA
ATOM     15  H   UNL     1      54.450  13.229  20.812  0.00  0.00    +0.403 HD
ENDBRANCH  13  14
BRANCH  17  18
ATOM     18  O   UNL     1      50.580  11.008  17.574  0.00  0.00    -0.480 OA
ATOM     19  H   UNL     1      49.620  11.122  17.615  0.00  0.00    +0.406 HD
ENDBRANCH  17  18
TORSDOF 10
ENDMDL
MODEL 5
REMARK VINA RESULT:      -6.1      1.363      2.510
REMARK  Name = ZINC04245684
REMARK  10 active torsions:
REMARK  status: ('A' for Active; 'I' for Inactive)
REMARK    1  A    between atoms: C3_3  and  O10_36
REMARK    2  A    between atoms: C6_6  and  C7_7
REMARK    3  A    between atoms: C11_12  and  O9_35
REMARK    4  A    between atoms: C13_14  and  O8_34
REMARK    5  A    between atoms: C14_15  and  C16_18
REMARK    6  A    between atoms: C17_20  and  O7_33
REMARK    7  A    between atoms: C18_22  and  O6_32
REMARK    8  A    between atoms: C19_24  and  O5_31
REMARK    9  A    between atoms: C20_26  and  C21_29
REMARK   10  A    between atoms: C21_29  and  O4_30
REMARK                            x       y       z     vdW  Elec       q    Type
REMARK                         _______ _______ _______ _____ _____    ______ ____
ROOT
ATOM      9  C   UNL     1      47.172  17.852  17.929  0.00  0.00    +0.211 A 
ATOM     10  C   UNL     1      46.430  16.787  17.524  0.00  0.00    -0.148 A 
ATOM     11  C   UNL     1      47.081  15.614  17.072  0.00  0.00    +0.425 A 
ATOM     12  C   UNL     1      48.554  15.616  17.069  0.00  0.00    -0.267 A 
ATOM     13  C   UNL     1      49.281  14.499  16.638  0.00  0.00    +0.226 A 
ATOM     16  C   UNL     1      50.663  14.540  16.650  0.00  0.00    -0.057 A 
ATOM     17  C   UNL     1      51.324  15.683  17.087  0.00  0.00    +0.217 A 
ATOM     20  C   UNL     1      50.610  16.792  17.514  0.00  0.00    -0.142 A 
ATOM     36  C   UNL     1      49.224  16.770  17.510  0.00  0.00    +0.208 A 
ATOM     37  O   UNL     1      46.447  14.640  16.699  0.00  0.00    -0.455 OA
ATOM     38  O   UNL     1      48.514  17.843  17.917  0.00  0.00    -0.212 OA
ENDROOT
BRANCH   9   8
ATOM      1  C   UNL     1      45.080  19.137  18.342  0.00  0.00    +0.079 A 
ATOM      2  C   UNL     1      44.434  20.272  18.780  0.00  0.00    -0.012 A 
ATOM      3  C   UNL     1      45.166  21.344  19.275  0.00  0.00    +0.135 A 
ATOM      6  C   UNL     1      46.553  21.277  19.331  0.00  0.00    -0.006 A 
ATOM      7  C   UNL     1      47.207  20.146  18.896  0.00  0.00    +0.080 A 
ATOM      8  C   UNL     1      46.475  19.065  18.396  0.00  0.00    -0.083 A 
BRANCH   3   4
ATOM      4  O   UNL     1      44.524  22.461  19.705  0.00  0.00    -0.497 OA
ATOM      5  H   UNL     1      45.111  23.210  19.876  0.00  0.00    +0.398 HD
ENDBRANCH   3   4
ENDBRANCH   9   8
BRANCH  20  21
ATOM     21  C   UNL     1      51.342  18.023  17.984  0.00  0.00    +0.242 C 
ATOM     22  C   UNL     1      51.436  19.031  16.835  0.00  0.00    +0.179 C 
ATOM     25  C   UNL     1      52.128  20.302  17.336  0.00  0.00    +0.117 C 
ATOM     28  C   UNL     1      51.350  20.855  18.534  0.00  0.00    +0.131 C 
ATOM     31  C   UNL     1      51.260  19.777  19.617  0.00  0.00    +0.182 C 
ATOM     35  O   UNL     1      50.634  18.612  19.076  0.00  0.00    -0.345 OA
BRANCH  22  23
ATOM     23  O   UNL     1      52.191  18.465  15.763  0.00  0.00    -0.549 OA
ATOM     24  H   UNL     1      51.902  18.750  14.884  0.00  0.00    +0.390 HD
ENDBRANCH  22  23
BRANCH  25  26
ATOM     26  O   UNL     1      52.155  21.276  16.290  0.00  0.00    -0.556 OA
ATOM     27  H   UNL     1      52.851  21.129  15.635  0.00  0.00    +0.383 HD
ENDBRANCH  25  26
BRANCH  28  29
ATOM     29  O   UNL     1      52.027  22.001  19.055  0.00  0.00    -0.553 OA
ATOM     30  H   UNL     1      51.630  22.359  19.862  0.00  0.00    +0.383 HD
ENDBRANCH  28  29
BRANCH  31  32
ATOM     32  C   UNL     1      50.434  20.302  20.792  0.00  0.00    +0.220 C 
BRANCH  32  33
ATOM     33  O   UNL     1      51.277  21.054  21.669  0.00  0.00    -0.567 OA
ATOM     34  H   UNL     1      52.014  20.547  22.036  0.00  0.00    +0.384 HD
ENDBRANCH  32  33
ENDBRANCH  31  32
ENDBRANCH  20  21
BRANCH  13  14
ATOM     14  O   UNL     1      48.634  13.384  16.212  0.00  0.00    -0.471 OA
ATOM     15  H   UNL     1      47.748  13.279  16.582  0.00  0.00    +0.403 HD
ENDBRANCH  13  14
BRANCH  17  18
ATOM     18  O   UNL     1      52.681  15.713  17.095  0.00  0.00    -0.480 OA
ATOM     19  H   UNL     1      53.088  14.955  17.537  0.00  0.00    +0.406 HD
ENDBRANCH  17  18
TORSDOF 10
ENDMDL
MODEL 6
REMARK VINA RESULT:      -6.1      2.400      6.142
REMARK  Name = ZINC04245684
REMARK  10 active torsions:
REMARK  status: ('A' for Active; 'I' for Inactive)
REMARK    1  A    between atoms: C3_3  and  O10_36
REMARK    2  A    between atoms: C6_6  and  C7_7
REMARK    3  A    between atoms: C11_12  and  O9_35
REMARK    4  A    between atoms: C13_14  and  O8_34
REMARK    5  A    between atoms: C14_15  and  C16_18
REMARK    6  A    between atoms: C17_20  and  O7_33
REMARK    7  A    between atoms: C18_22  and  O6_32
REMARK    8  A    between atoms: C19_24  and  O5_31
REMARK    9  A    between atoms: C20_26  and  C21_29
REMARK   10  A    between atoms: C21_29  and  O4_30
REMARK                            x       y       z     vdW  Elec       q    Type
REMARK                         _______ _______ _______ _____ _____    ______ ____
ROOT
ATOM      9  C   UNL     1      48.348  17.113  18.280  0.00  0.00    +0.211 A 
ATOM     10  C   UNL     1      47.146  17.278  18.894  0.00  0.00    -0.148 A 
ATOM     11  C   UNL     1      46.257  16.180  18.995  0.00  0.00    +0.425 A 
ATOM     12  C   UNL     1      46.696  14.898  18.418  0.00  0.00    -0.267 A 
ATOM     13  C   UNL     1      45.882  13.760  18.472  0.00  0.00    +0.226 A 
ATOM     16  C   UNL     1      46.330  12.575  17.918  0.00  0.00    -0.057 A 
ATOM     17  C   UNL     1      47.581  12.516  17.313  0.00  0.00    +0.217 A 
ATOM     20  C   UNL     1      48.392  13.639  17.256  0.00  0.00    -0.142 A 
ATOM     36  C   UNL     1      47.960  14.836  17.806  0.00  0.00    +0.208 A 
ATOM     37  O   UNL     1      45.170  16.292  19.538  0.00  0.00    -0.455 OA
ATOM     38  O   UNL     1      48.735  15.940  17.754  0.00  0.00    -0.212 OA
ENDROOT
BRANCH   9   8
ATOM      1  C   UNL     1      48.992  19.434  18.910  0.00  0.00    +0.079 A 
ATOM      2  C   UNL     1      49.847  20.510  18.818  0.00  0.00    -0.012 A 
ATOM      3  C   UNL     1      50.973  20.438  18.007  0.00  0.00    +0.135 A 
ATOM      6  C   UNL     1      51.244  19.281  17.286  0.00  0.00    -0.006 A 
ATOM      7  C   UNL     1      50.394  18.201  17.372  0.00  0.00    +0.080 A 
ATOM      8  C   UNL     1      49.260  18.268  18.185  0.00  0.00    -0.083 A 
BRANCH   3   4
ATOM      4  O   UNL     1      51.813  21.502  17.920  0.00  0.00    -0.497 OA
ATOM      5  H   UNL     1      52.325  21.532  17.100  0.00  0.00    +0.398 HD
ENDBRANCH   3   4
ENDBRANCH   9   8
BRANCH  20  21
ATOM     21  C   UNL     1      49.744  13.558  16.596  0.00  0.00    +0.242 C 
ATOM     22  C   UNL     1      50.581  12.470  17.277  0.00  0.00    +0.179 C 
ATOM     25  C   UNL     1      51.930  12.353  16.563  0.00  0.00    +0.117 C 
ATOM     28  C   UNL     1      51.687  12.057  15.080  0.00  0.00    +0.131 C 
ATOM     31  C   UNL     1      50.809  13.161  14.484  0.00  0.00    +0.182 C 
ATOM     35  O   UNL     1      49.583  13.237  15.214  0.00  0.00    -0.345 OA
BRANCH  22  23
ATOM     23  O   UNL     1      50.791  12.818  18.647  0.00  0.00    -0.549 OA
ATOM     24  H   UNL     1      49.989  12.788  19.188  0.00  0.00    +0.390 HD
ENDBRANCH  22  23
BRANCH  25  26
ATOM     26  O   UNL     1      52.689  11.292  17.147  0.00  0.00    -0.556 OA
ATOM     27  H   UNL     1      52.630  10.455  16.665  0.00  0.00    +0.383 HD
ENDBRANCH  25  26
BRANCH  28  29
ATOM     29  O   UNL     1      52.938  12.016  14.390  0.00  0.00    -0.553 OA
ATOM     30  H   UNL     1      53.265  12.885  14.117  0.00  0.00    +0.383 HD
ENDBRANCH  28  29
BRANCH  31  32
ATOM     32  C   UNL     1      50.513  12.841  13.018  0.00  0.00    +0.220 C 
BRANCH  32  33
ATOM     33  O   UNL     1      51.549  13.381  12.194  0.00  0.00    -0.567 OA
ATOM     34  H   UNL     1      51.359  13.341  11.247  0.00  0.00    +0.384 HD
ENDBRANCH  32  33
ENDBRANCH  31  32
ENDBRANCH  20  21
BRANCH  13  14
ATOM     14  O   UNL     1      44.662  13.820  19.063  0.00  0.00    -0.471 OA
ATOM     15  H   UNL     1      44.278  12.956  19.262  0.00  0.00    +0.403 HD
ENDBRANCH  13  14
BRANCH  17  18
ATOM     18  O   UNL     1      48.012  11.347  16.773  0.00  0.00    -0.480 OA
ATOM     19  H   UNL     1      47.691  11.188  15.874  0.00  0.00    +0.406 HD
ENDBRANCH  17  18
TORSDOF 10
ENDMDL
MODEL 7
REMARK VINA RESULT:      -6.0      1.838      6.771
REMARK  Name = ZINC04245684
REMARK  10 active torsions:
REMARK  status: ('A' for Active; 'I' for Inactive)
REMARK    1  A    between atoms: C3_3  and  O10_36
REMARK    2  A    between atoms: C6_6  and  C7_7
REMARK    3  A    between atoms: C11_12  and  O9_35
REMARK    4  A    between atoms: C13_14  and  O8_34
REMARK    5  A    between atoms: C14_15  and  C16_18
REMARK    6  A    between atoms: C17_20  and  O7_33
REMARK    7  A    between atoms: C18_22  and  O6_32
REMARK    8  A    between atoms: C19_24  and  O5_31
REMARK    9  A    between atoms: C20_26  and  C21_29
REMARK   10  A    between atoms: C21_29  and  O4_30
REMARK                            x       y       z     vdW  Elec       q    Type
REMARK                         _______ _______ _______ _____ _____    ______ ____
ROOT
ATOM      9  C   UNL     1      49.465  16.991  17.786  0.00  0.00    +0.211 A 
ATOM     10  C   UNL     1      50.012  15.780  17.496  0.00  0.00    -0.148 A 
ATOM     11  C   UNL     1      49.329  14.598  17.873  0.00  0.00    +0.425 A 
ATOM     12  C   UNL     1      48.041  14.753  18.570  0.00  0.00    -0.267 A 
ATOM     13  C   UNL     1      47.297  13.639  18.979  0.00  0.00    +0.226 A 
ATOM     16  C   UNL     1      46.093  13.826  19.631  0.00  0.00    -0.057 A 
ATOM     17  C   UNL     1      45.624  15.112  19.876  0.00  0.00    +0.217 A 
ATOM     20  C   UNL     1      46.355  16.220  19.474  0.00  0.00    -0.142 A 
ATOM     36  C   UNL     1      47.565  16.052  18.819  0.00  0.00    +0.208 A 
ATOM     37  O   UNL     1      49.791  13.494  17.631  0.00  0.00    -0.455 OA
ATOM     38  O   UNL     1      48.292  17.119  18.425  0.00  0.00    -0.212 OA
ENDROOT
BRANCH   9   8
ATOM      1  C   UNL     1      51.111  18.165  16.333  0.00  0.00    +0.079 A 
ATOM      2  C   UNL     1      51.786  19.307  15.962  0.00  0.00    -0.012 A 
ATOM      3  C   UNL     1      51.555  20.502  16.632  0.00  0.00    +0.135 A 
ATOM      6  C   UNL     1      50.640  20.552  17.678  0.00  0.00    -0.006 A 
ATOM      7  C   UNL     1      49.961  19.415  18.055  0.00  0.00    +0.080 A 
ATOM      8  C   UNL     1      50.191  18.211  17.385  0.00  0.00    -0.083 A 
BRANCH   3   4
ATOM      4  O   UNL     1      52.223  21.626  16.262  0.00  0.00    -0.497 OA
ATOM      5  H   UNL     1      52.895  21.478  15.583  0.00  0.00    +0.398 HD
ENDBRANCH   3   4
ENDBRANCH   9   8
BRANCH  20  21
ATOM     21  C   UNL     1      45.833  17.606  19.748  0.00  0.00    +0.242 C 
ATOM     22  C   UNL     1      45.044  18.105  18.534  0.00  0.00    +0.179 C 
ATOM     25  C   UNL     1      44.467  19.489  18.843  0.00  0.00    +0.117 C 
ATOM     28  C   UNL     1      43.601  19.400  20.103  0.00  0.00    +0.131 C 
ATOM     31  C   UNL     1      44.445  18.852  21.256  0.00  0.00    +0.182 C 
ATOM     35  O   UNL     1      44.976  17.576  20.892  0.00  0.00    -0.345 OA
BRANCH  22  23
ATOM     23  O   UNL     1      45.912  18.189  17.402  0.00  0.00    -0.549 OA
ATOM     24  H   UNL     1      45.943  17.381  16.870  0.00  0.00    +0.390 HD
ENDBRANCH  22  23
BRANCH  25  26
ATOM     26  O   UNL     1      43.670  19.931  17.742  0.00  0.00    -0.556 OA
ATOM     27  H   UNL     1      43.529  19.258  17.063  0.00  0.00    +0.383 HD
ENDBRANCH  25  26
BRANCH  28  29
ATOM     29  O   UNL     1      43.114  20.700  20.442  0.00  0.00    -0.553 OA
ATOM     30  H   UNL     1      43.710  21.420  20.192  0.00  0.00    +0.383 HD
ENDBRANCH  28  29
BRANCH  31  32
ATOM     32  C   UNL     1      43.571  18.703  22.503  0.00  0.00    +0.220 C 
BRANCH  32  33
ATOM     33  O   UNL     1      42.193  18.689  22.120  0.00  0.00    -0.567 OA
ATOM     34  H   UNL     1      41.640  18.115  22.666  0.00  0.00    +0.384 HD
ENDBRANCH  32  33
ENDBRANCH  31  32
ENDBRANCH  20  21
BRANCH  13  14
ATOM     14  O   UNL     1      47.757  12.385  18.739  0.00  0.00    -0.471 OA
ATOM     15  H   UNL     1      48.386  12.329  18.008  0.00  0.00    +0.403 HD
ENDBRANCH  13  14
BRANCH  17  18
ATOM     18  O   UNL     1      44.439  15.285  20.517  0.00  0.00    -0.480 OA
ATOM     19  H   UNL     1      44.399  14.865  21.388  0.00  0.00    +0.406 HD
ENDBRANCH  17  18
TORSDOF 10
ENDMDL
MODEL 8
REMARK VINA RESULT:      -5.9      2.243      7.308
REMARK  Name = ZINC04245684
REMARK  10 active torsions:
REMARK  status: ('A' for Active; 'I' for Inactive)
REMARK    1  A    between atoms: C3_3  and  O10_36
REMARK    2  A    between atoms: C6_6  and  C7_7
REMARK    3  A    between atoms: C11_12  and  O9_35
REMARK    4  A    between atoms: C13_14  and  O8_34
REMARK    5  A    between atoms: C14_15  and  C16_18
REMARK    6  A    between atoms: C17_20  and  O7_33
REMARK    7  A    between atoms: C18_22  and  O6_32
REMARK    8  A    between atoms: C19_24  and  O5_31
REMARK    9  A    between atoms: C20_26  and  C21_29
REMARK   10  A    between atoms: C21_29  and  O4_30
REMARK                            x       y       z     vdW  Elec       q    Type
REMARK                         _______ _______ _______ _____ _____    ______ ____
ROOT
ATOM      9  C   UNL     1      47.680  16.291  17.912  0.00  0.00    +0.211 A 
ATOM     10  C   UNL     1      48.996  16.581  17.727  0.00  0.00    -0.148 A 
ATOM     11  C   UNL     1      49.483  17.864  18.077  0.00  0.00    +0.425 A 
ATOM     12  C   UNL     1      48.517  18.828  18.631  0.00  0.00    -0.267 A 
ATOM     13  C   UNL     1      48.911  20.119  19.004  0.00  0.00    +0.226 A 
ATOM     16  C   UNL     1      47.974  20.994  19.520  0.00  0.00    -0.057 A 
ATOM     17  C   UNL     1      46.651  20.593  19.667  0.00  0.00    +0.217 A 
ATOM     20  C   UNL     1      46.254  19.316  19.300  0.00  0.00    -0.142 A 
ATOM     36  C   UNL     1      47.180  18.425  18.781  0.00  0.00    +0.208 A 
ATOM     37  O   UNL     1      50.658  18.160  17.924  0.00  0.00    -0.455 OA
ATOM     38  O   UNL     1      46.809  17.180  18.413  0.00  0.00    -0.212 OA
ENDROOT
BRANCH   9   8
ATOM      1  C   UNL     1      46.170  14.347  18.281  0.00  0.00    +0.079 A 
ATOM      2  C   UNL     1      45.717  13.094  17.931  0.00  0.00    -0.012 A 
ATOM      3  C   UNL     1      46.273  12.430  16.845  0.00  0.00    +0.135 A 
ATOM      6  C   UNL     1      47.289  13.026  16.106  0.00  0.00    -0.006 A 
ATOM      7  C   UNL     1      47.748  14.278  16.449  0.00  0.00    +0.080 A 
ATOM      8  C   UNL     1      47.192  14.950  17.541  0.00  0.00    -0.083 A 
BRANCH   3   4
ATOM      4  O   UNL     1      45.823  11.195  16.504  0.00  0.00    -0.497 OA
ATOM      5  H   UNL     1      45.566  10.647  17.259  0.00  0.00    +0.398 HD
ENDBRANCH   3   4
ENDBRANCH   9   8
BRANCH  20  21
ATOM     21  C   UNL     1      44.816  18.899  19.466  0.00  0.00    +0.242 C 
ATOM     22  C   UNL     1      44.523  18.652  20.950  0.00  0.00    +0.179 C 
ATOM     25  C   UNL     1      43.046  18.286  21.116  0.00  0.00    +0.117 C 
ATOM     28  C   UNL     1      42.183  19.409  20.532  0.00  0.00    +0.131 C 
ATOM     31  C   UNL     1      42.566  19.626  19.065  0.00  0.00    +0.182 C 
ATOM     35  O   UNL     1      43.959  19.932  18.979  0.00  0.00    -0.345 OA
BRANCH  22  23
ATOM     23  O   UNL     1      45.340  17.581  21.425  0.00  0.00    -0.549 OA
ATOM     24  H   UNL     1      46.286  17.784  21.440  0.00  0.00    +0.390 HD
ENDBRANCH  22  23
BRANCH  25  26
ATOM     26  O   UNL     1      42.747  18.125  22.505  0.00  0.00    -0.556 OA
ATOM     27  H   UNL     1      42.702  18.956  22.997  0.00  0.00    +0.383 HD
ENDBRANCH  25  26
BRANCH  28  29
ATOM     29  O   UNL     1      40.804  19.046  20.618  0.00  0.00    -0.553 OA
ATOM     30  H   UNL     1      40.479  18.946  21.524  0.00  0.00    +0.383 HD
ENDBRANCH  28  29
BRANCH  31  32
ATOM     32  C   UNL     1      41.750  20.786  18.491  0.00  0.00    +0.220 C 
BRANCH  32  33
ATOM     33  O   UNL     1      41.216  21.568  19.563  0.00  0.00    -0.567 OA
ATOM     34  H   UNL     1      40.291  21.374  19.768  0.00  0.00    +0.384 HD
ENDBRANCH  32  33
ENDBRANCH  31  32
ENDBRANCH  20  21
BRANCH  13  14
ATOM     14  O   UNL     1      50.204  20.508  18.859  0.00  0.00    -0.471 OA
ATOM     15  H   UNL     1      50.344  21.457  18.974  0.00  0.00    +0.403 HD
ENDBRANCH  13  14
BRANCH  17  18
ATOM     18  O   UNL     1      45.738  21.461  20.176  0.00  0.00    -0.480 OA
ATOM     19  H   UNL     1      44.922  21.040  20.479  0.00  0.00    +0.406 HD
ENDBRANCH  17  18
TORSDOF 10
ENDMDL
MODEL 9
REMARK VINA RESULT:      -5.8      2.765      6.641
REMARK  Name = ZINC04245684
REMARK  10 active torsions:
REMARK  status: ('A' for Active; 'I' for Inactive)
REMARK    1  A    between atoms: C3_3  and  O10_36
REMARK    2  A    between atoms: C6_6  and  C7_7
REMARK    3  A    between atoms: C11_12  and  O9_35
REMARK    4  A    between atoms: C13_14  and  O8_34
REMARK    5  A    between atoms: C14_15  and  C16_18
REMARK    6  A    between atoms: C17_20  and  O7_33
REMARK    7  A    between atoms: C18_22  and  O6_32
REMARK    8  A    between atoms: C19_24  and  O5_31
REMARK    9  A    between atoms: C20_26  and  C21_29
REMARK   10  A    between atoms: C21_29  and  O4_30
REMARK                            x       y       z     vdW  Elec       q    Type
REMARK                         _______ _______ _______ _____ _____    ______ ____
ROOT
ATOM      9  C   UNL     1      49.435  17.987  18.690  0.00  0.00    +0.211 A 
ATOM     10  C   UNL     1      48.762  18.414  19.792  0.00  0.00    -0.148 A 
ATOM     11  C   UNL     1      47.992  17.491  20.540  0.00  0.00    +0.425 A 
ATOM     12  C   UNL     1      47.964  16.095  20.073  0.00  0.00    -0.267 A 
ATOM     13  C   UNL     1      47.229  15.115  20.751  0.00  0.00    +0.226 A 
ATOM     16  C   UNL     1      47.228  13.816  20.280  0.00  0.00    -0.057 A 
ATOM     17  C   UNL     1      47.954  13.486  19.141  0.00  0.00    +0.217 A 
ATOM     20  C   UNL     1      48.685  14.451  18.464  0.00  0.00    -0.142 A 
ATOM     36  C   UNL     1      48.697  15.759  18.921  0.00  0.00    +0.208 A 
ATOM     37  O   UNL     1      47.374  17.840  21.534  0.00  0.00    -0.455 OA
ATOM     38  O   UNL     1      49.398  16.712  18.271  0.00  0.00    -0.212 OA
ENDROOT
BRANCH   9   8
ATOM      1  C   UNL     1      50.309  20.293  18.348  0.00  0.00    +0.079 A 
ATOM      2  C   UNL     1      51.055  21.200  17.628  0.00  0.00    -0.012 A 
ATOM      3  C   UNL     1      51.729  20.796  16.484  0.00  0.00    +0.135 A 
ATOM      6  C   UNL     1      51.656  19.474  16.058  0.00  0.00    -0.006 A 
ATOM      7  C   UNL     1      50.913  18.560  16.771  0.00  0.00    +0.080 A 
ATOM      8  C   UNL     1      50.232  18.963  17.923  0.00  0.00    -0.083 A 
BRANCH   3   4
ATOM      4  O   UNL     1      52.464  21.695  15.777  0.00  0.00    -0.497 OA
ATOM      5  H   UNL     1      51.935  22.282  15.220  0.00  0.00    +0.398 HD
ENDBRANCH   3   4
ENDBRANCH   9   8
BRANCH  20  21
ATOM     21  C   UNL     1      49.465  14.076  17.230  0.00  0.00    +0.242 C 
ATOM     22  C   UNL     1      50.623  13.153  17.619  0.00  0.00    +0.179 C 
ATOM     25  C   UNL     1      51.375  12.729  16.355  0.00  0.00    +0.117 C 
ATOM     28  C   UNL     1      50.393  12.056  15.391  0.00  0.00    +0.131 C 
ATOM     31  C   UNL     1      49.244  13.022  15.088  0.00  0.00    +0.182 C 
ATOM     35  O   UNL     1      48.607  13.400  16.309  0.00  0.00    -0.345 OA
BRANCH  22  23
ATOM     23  O   UNL     1      51.512  13.846  18.497  0.00  0.00    -0.549 OA
ATOM     24  H   UNL     1      51.317  14.789  18.589  0.00  0.00    +0.390 HD
ENDBRANCH  22  23
BRANCH  25  26
ATOM     26  O   UNL     1      52.413  11.810  16.701  0.00  0.00    -0.556 OA
ATOM     27  H   UNL     1      53.281  12.221  16.812  0.00  0.00    +0.383 HD
ENDBRANCH  25  26
BRANCH  28  29
ATOM     29  O   UNL     1      51.068  11.720  14.177  0.00  0.00    -0.553 OA
ATOM     30  H   UNL     1      51.849  11.162  14.303  0.00  0.00    +0.383 HD
ENDBRANCH  28  29
BRANCH  31  32
ATOM     32  C   UNL     1      48.228  12.335  14.173  0.00  0.00    +0.220 C 
BRANCH  32  33
ATOM     33  O   UNL     1      47.364  13.319  13.598  0.00  0.00    -0.567 OA
ATOM     34  H   UNL     1      47.245  14.106  14.147  0.00  0.00    +0.384 HD
ENDBRANCH  32  33
ENDBRANCH  31  32
ENDBRANCH  20  21
BRANCH  13  14
ATOM     14  O   UNL     1      46.521  15.439  21.863  0.00  0.00    -0.471 OA
ATOM     15  H   UNL     1      46.384  16.389  21.979  0.00  0.00    +0.403 HD
ENDBRANCH  13  14
BRANCH  17  18
ATOM     18  O   UNL     1      47.947  12.206  18.687  0.00  0.00    -0.480 OA
ATOM     19  H   UNL     1      47.115  11.738  18.843  0.00  0.00    +0.406 HD
ENDBRANCH  17  18
TORSDOF 10
ENDMDL
