MODEL 1
REMARK VINA RESULT:      -6.0      0.000      0.000
REMARK  Name = ZINC95486106
REMARK  4 active torsions:
REMARK  status: ('A' for Active; 'I' for Inactive)
REMARK    1  A    between atoms: C1_1  and  C2_2
REMARK    2  A    between atoms: C13_19  and  C20_28
REMARK    3  A    between atoms: C17_23  and  C18_24
REMARK    4  A    between atoms: C17_23  and  C19_25
REMARK                            x       y       z     vdW  Elec       q    Type
REMARK                         _______ _______ _______ _____ _____    ______ ____
ROOT
ATOM      1  C   UNL     1      52.213  19.777  15.759  0.00  0.00    +0.014 C 
ATOM      2  C   UNL     1      51.019  19.553  16.690  0.00  0.00    -0.021 C 
ATOM      3  C   UNL     1      50.590  18.079  16.801  0.00  0.00    +0.004 C 
ATOM      4  C   UNL     1      50.372  18.344  18.303  0.00  0.00    -0.026 C 
ATOM      5  C   UNL     1      48.948  18.768  18.616  0.00  0.00    +0.011 C 
ATOM      6  C   UNL     1      48.158  17.591  19.192  0.00  0.00    -0.014 C 
ATOM      7  C   UNL     1      46.707  18.020  19.425  0.00  0.00    +0.031 C 
ATOM      8  C   UNL     1      46.671  19.194  20.404  0.00  0.00    +0.002 C 
ATOM      9  C   UNL     1      47.451  20.353  19.827  0.00  0.00    -0.039 C 
ATOM     10  C   UNL     1      46.824  20.777  18.496  0.00  0.00    +0.025 C 
ATOM     11  C   UNL     1      47.410  21.527  20.807  0.00  0.00    -0.009 C 
ATOM     12  C   UNL     1      45.957  21.946  21.040  0.00  0.00    +0.008 C 
ATOM     13  C   UNL     1      45.173  20.768  21.620  0.00  0.00    +0.005 C 
ATOM     14  C   UNL     1      45.221  19.623  20.635  0.00  0.00    -0.133 C 
ATOM     18  C   UNL     1      44.426  18.449  21.212  0.00  0.00    +0.008 C 
ATOM     19  C   UNL     1      48.903  19.931  19.594  0.00  0.00    -0.003 C 
ATOM     20  C   UNL     1      49.692  21.101  19.005  0.00  0.00    +0.012 C 
ATOM     21  C   UNL     1      51.172  20.729  18.963  0.00  0.00    +0.004 C 
ATOM     22  C   UNL     1      51.403  19.457  18.173  0.00  0.00    -0.020 C 
ENDROOT
BRANCH  14  15
ATOM     15  C   UNL     1      44.609  20.047  19.324  0.00  0.00    +0.526 C 
ATOM     16  O   UNL     1      44.130  21.162  19.208  0.00  0.00    -0.696 OA
ATOM     17  O   UNL     1      44.592  19.275  18.381  0.00  0.00    -0.689 OA
ENDBRANCH  14  15
TORSDOF 1
ENDMDL
MODEL 2
REMARK VINA RESULT:      -5.9      2.813      5.986
REMARK  Name = ZINC95486106
REMARK  4 active torsions:
REMARK  status: ('A' for Active; 'I' for Inactive)
REMARK    1  A    between atoms: C1_1  and  C2_2
REMARK    2  A    between atoms: C13_19  and  C20_28
REMARK    3  A    between atoms: C17_23  and  C18_24
REMARK    4  A    between atoms: C17_23  and  C19_25
REMARK                            x       y       z     vdW  Elec       q    Type
REMARK                         _______ _______ _______ _____ _____    ______ ____
ROOT
ATOM      1  C   UNL     1      44.331  16.270  21.580  0.00  0.00    +0.014 C 
ATOM      2  C   UNL     1      45.473  16.690  20.652  0.00  0.00    -0.021 C 
ATOM      3  C   UNL     1      45.670  15.749  19.449  0.00  0.00    +0.004 C 
ATOM      4  C   UNL     1      45.921  17.016  18.608  0.00  0.00    -0.026 C 
ATOM      5  C   UNL     1      47.393  17.384  18.542  0.00  0.00    +0.011 C 
ATOM      6  C   UNL     1      47.990  16.949  17.202  0.00  0.00    -0.014 C 
ATOM      7  C   UNL     1      49.489  17.259  17.191  0.00  0.00    +0.031 C 
ATOM      8  C   UNL     1      49.703  18.760  17.387  0.00  0.00    +0.002 C 
ATOM      9  C   UNL     1      49.113  19.182  18.714  0.00  0.00    -0.039 C 
ATOM     10  C   UNL     1      49.802  18.414  19.845  0.00  0.00    +0.025 C 
ATOM     11  C   UNL     1      49.332  20.683  18.909  0.00  0.00    -0.009 C 
ATOM     12  C   UNL     1      50.832  20.986  18.890  0.00  0.00    +0.008 C 
ATOM     13  C   UNL     1      51.423  20.554  17.548  0.00  0.00    +0.005 C 
ATOM     14  C   UNL     1      51.202  19.068  17.378  0.00  0.00    -0.133 C 
ATOM     18  C   UNL     1      51.803  18.635  16.039  0.00  0.00    +0.008 C 
ATOM     19  C   UNL     1      47.614  18.877  18.731  0.00  0.00    -0.003 C 
ATOM     20  C   UNL     1      47.017  19.298  20.075  0.00  0.00    +0.012 C 
ATOM     21  C   UNL     1      45.498  19.170  20.002  0.00  0.00    +0.004 C 
ATOM     22  C   UNL     1      45.075  17.764  19.630  0.00  0.00    -0.020 C 
ENDROOT
BRANCH  14  15
ATOM     15  C   UNL     1      51.875  18.317  18.497  0.00  0.00    +0.526 C 
ATOM     16  O   UNL     1      52.435  18.929  19.391  0.00  0.00    -0.696 OA
ATOM     17  O   UNL     1      51.862  17.098  18.508  0.00  0.00    -0.689 OA
ENDBRANCH  14  15
TORSDOF 1
ENDMDL
MODEL 3
REMARK VINA RESULT:      -5.7      1.909      3.504
REMARK  Name = ZINC95486106
REMARK  4 active torsions:
REMARK  status: ('A' for Active; 'I' for Inactive)
REMARK    1  A    between atoms: C1_1  and  C2_2
REMARK    2  A    between atoms: C13_19  and  C20_28
REMARK    3  A    between atoms: C17_23  and  C18_24
REMARK    4  A    between atoms: C17_23  and  C19_25
REMARK                            x       y       z     vdW  Elec       q    Type
REMARK                         _______ _______ _______ _____ _____    ______ ____
ROOT
ATOM      1  C   UNL     1      49.889  15.107  18.306  0.00  0.00    +0.014 C 
ATOM      2  C   UNL     1      49.190  16.430  18.629  0.00  0.00    -0.021 C 
ATOM      3  C   UNL     1      50.159  17.566  19.003  0.00  0.00    +0.004 C 
ATOM      4  C   UNL     1      49.250  18.497  18.176  0.00  0.00    -0.026 C 
ATOM      5  C   UNL     1      48.175  19.156  19.021  0.00  0.00    +0.011 C 
ATOM      6  C   UNL     1      48.563  20.600  19.344  0.00  0.00    -0.014 C 
ATOM      7  C   UNL     1      47.503  21.218  20.260  0.00  0.00    +0.031 C 
ATOM      8  C   UNL     1      46.144  21.193  19.560  0.00  0.00    +0.002 C 
ATOM      9  C   UNL     1      45.766  19.763  19.246  0.00  0.00    -0.039 C 
ATOM     10  C   UNL     1      45.686  18.961  20.548  0.00  0.00    +0.025 C 
ATOM     11  C   UNL     1      44.405  19.743  18.549  0.00  0.00    -0.009 C 
ATOM     12  C   UNL     1      43.352  20.366  19.468  0.00  0.00    +0.008 C 
ATOM     13  C   UNL     1      43.743  21.811  19.784  0.00  0.00    +0.005 C 
ATOM     14  C   UNL     1      45.086  21.809  20.477  0.00  0.00    -0.133 C 
ATOM     18  C   UNL     1      45.469  23.254  20.802  0.00  0.00    +0.008 C 
ATOM     19  C   UNL     1      46.821  19.142  18.329  0.00  0.00    -0.003 C 
ATOM     20  C   UNL     1      46.443  17.693  18.015  0.00  0.00    +0.012 C 
ATOM     21  C   UNL     1      47.392  17.154  16.950  0.00  0.00    +0.004 C 
ATOM     22  C   UNL     1      48.838  17.261  17.387  0.00  0.00    -0.020 C 
ENDROOT
BRANCH  14  15
ATOM     15  C   UNL     1      45.004  21.012  21.753  0.00  0.00    +0.526 C 
ATOM     16  O   UNL     1      45.964  20.962  22.503  0.00  0.00    -0.696 OA
ATOM     17  O   UNL     1      43.978  20.415  22.036  0.00  0.00    -0.689 OA
ENDBRANCH  14  15
TORSDOF 1
ENDMDL
MODEL 4
REMARK VINA RESULT:      -5.6      2.764      6.139
REMARK  Name = ZINC95486106
REMARK  4 active torsions:
REMARK  status: ('A' for Active; 'I' for Inactive)
REMARK    1  A    between atoms: C1_1  and  C2_2
REMARK    2  A    between atoms: C13_19  and  C20_28
REMARK    3  A    between atoms: C17_23  and  C18_24
REMARK    4  A    between atoms: C17_23  and  C19_25
REMARK                            x       y       z     vdW  Elec       q    Type
REMARK                         _______ _______ _______ _____ _____    ______ ____
ROOT
ATOM      1  C   UNL     1      44.035  23.394  19.505  0.00  0.00    +0.014 C 
ATOM      2  C   UNL     1      45.353  22.684  19.829  0.00  0.00    -0.021 C 
ATOM      3  C   UNL     1      45.905  23.013  21.228  0.00  0.00    +0.004 C 
ATOM      4  C   UNL     1      46.292  21.525  21.332  0.00  0.00    -0.026 C 
ATOM      5  C   UNL     1      47.708  21.261  20.851  0.00  0.00    +0.011 C 
ATOM      6  C   UNL     1      48.652  21.102  22.045  0.00  0.00    -0.014 C 
ATOM      7  C   UNL     1      50.084  20.915  21.536  0.00  0.00    +0.031 C 
ATOM      8  C   UNL     1      50.156  19.669  20.652  0.00  0.00    +0.002 C 
ATOM      9  C   UNL     1      49.221  19.834  19.475  0.00  0.00    -0.039 C 
ATOM     10  C   UNL     1      49.639  21.062  18.662  0.00  0.00    +0.025 C 
ATOM     11  C   UNL     1      49.298  18.587  18.593  0.00  0.00    -0.009 C 
ATOM     12  C   UNL     1      50.732  18.404  18.092  0.00  0.00    +0.008 C 
ATOM     13  C   UNL     1      51.672  18.242  19.288  0.00  0.00    +0.005 C 
ATOM     14  C   UNL     1      51.586  19.485  20.143  0.00  0.00    -0.133 C 
ATOM     18  C   UNL     1      52.535  19.325  21.333  0.00  0.00    +0.008 C 
ATOM     19  C   UNL     1      47.788  20.019  19.977  0.00  0.00    -0.003 C 
ATOM     20  C   UNL     1      46.843  20.191  18.787  0.00  0.00    +0.012 C 
ATOM     21  C   UNL     1      45.403  20.177  19.294  0.00  0.00    +0.004 C 
ATOM     22  C   UNL     1      45.170  21.248  20.339  0.00  0.00    -0.020 C 
ENDROOT
BRANCH  14  15
ATOM     15  C   UNL     1      51.991  20.692  19.337  0.00  0.00    +0.526 C 
ATOM     16  O   UNL     1      52.239  20.576  18.149  0.00  0.00    -0.696 OA
ATOM     17  O   UNL     1      52.071  21.785  19.872  0.00  0.00    -0.689 OA
ENDBRANCH  14  15
TORSDOF 1
ENDMDL
MODEL 5
REMARK VINA RESULT:      -5.4      1.485      2.062
REMARK  Name = ZINC95486106
REMARK  4 active torsions:
REMARK  status: ('A' for Active; 'I' for Inactive)
REMARK    1  A    between atoms: C1_1  and  C2_2
REMARK    2  A    between atoms: C13_19  and  C20_28
REMARK    3  A    between atoms: C17_23  and  C18_24
REMARK    4  A    between atoms: C17_23  and  C19_25
REMARK                            x       y       z     vdW  Elec       q    Type
REMARK                         _______ _______ _______ _____ _____    ______ ____
ROOT
ATOM      1  C   UNL     1      52.036  21.121  15.798  0.00  0.00    +0.014 C 
ATOM      2  C   UNL     1      51.153  20.253  16.699  0.00  0.00    -0.021 C 
ATOM      3  C   UNL     1      51.481  18.750  16.624  0.00  0.00    +0.004 C 
ATOM      4  C   UNL     1      51.262  18.714  18.149  0.00  0.00    -0.026 C 
ATOM      5  C   UNL     1      49.831  18.368  18.520  0.00  0.00    +0.011 C 
ATOM      6  C   UNL     1      49.732  16.901  18.945  0.00  0.00    -0.014 C 
ATOM      7  C   UNL     1      48.269  16.556  19.238  0.00  0.00    +0.031 C 
ATOM      8  C   UNL     1      47.745  17.455  20.359  0.00  0.00    +0.002 C 
ATOM      9  C   UNL     1      47.844  18.902  19.929  0.00  0.00    -0.039 C 
ATOM     10  C   UNL     1      47.006  19.116  18.666  0.00  0.00    +0.025 C 
ATOM     11  C   UNL     1      47.316  19.797  21.051  0.00  0.00    -0.009 C 
ATOM     12  C   UNL     1      45.856  19.443  21.342  0.00  0.00    +0.008 C 
ATOM     13  C   UNL     1      45.763  17.978  21.771  0.00  0.00    +0.005 C 
ATOM     14  C   UNL     1      46.283  17.111  20.649  0.00  0.00    -0.133 C 
ATOM     18  C   UNL     1      46.179  15.645  21.076  0.00  0.00    +0.008 C 
ATOM     19  C   UNL     1      49.304  19.253  19.638  0.00  0.00    -0.003 C 
ATOM     20  C   UNL     1      49.405  20.715  19.198  0.00  0.00    +0.012 C 
ATOM     21  C   UNL     1      50.878  21.102  19.103  0.00  0.00    +0.004 C 
ATOM     22  C   UNL     1      51.632  20.191  18.156  0.00  0.00    -0.020 C 
ENDROOT
BRANCH  14  15
ATOM     15  C   UNL     1      45.460  17.331  19.406  0.00  0.00    +0.526 C 
ATOM     16  O   UNL     1      45.744  16.746  18.375  0.00  0.00    -0.696 OA
ATOM     17  O   UNL     1      44.510  18.095  19.431  0.00  0.00    -0.689 OA
ENDBRANCH  14  15
TORSDOF 1
ENDMDL
MODEL 6
REMARK VINA RESULT:      -5.4      2.534      6.119
REMARK  Name = ZINC95486106
REMARK  4 active torsions:
REMARK  status: ('A' for Active; 'I' for Inactive)
REMARK    1  A    between atoms: C1_1  and  C2_2
REMARK    2  A    between atoms: C13_19  and  C20_28
REMARK    3  A    between atoms: C17_23  and  C18_24
REMARK    4  A    between atoms: C17_23  and  C19_25
REMARK                            x       y       z     vdW  Elec       q    Type
REMARK                         _______ _______ _______ _____ _____    ______ ____
ROOT
ATOM      1  C   UNL     1      43.391  20.020  18.797  0.00  0.00    +0.014 C 
ATOM      2  C   UNL     1      44.917  19.893  18.817  0.00  0.00    -0.021 C 
ATOM      3  C   UNL     1      45.651  21.245  18.756  0.00  0.00    +0.004 C 
ATOM      4  C   UNL     1      46.638  20.658  19.784  0.00  0.00    -0.026 C 
ATOM      5  C   UNL     1      47.834  19.996  19.125  0.00  0.00    +0.011 C 
ATOM      6  C   UNL     1      49.053  20.919  19.188  0.00  0.00    -0.014 C 
ATOM      7  C   UNL     1      50.223  20.263  18.449  0.00  0.00    +0.031 C 
ATOM      8  C   UNL     1      50.557  18.923  19.105  0.00  0.00    +0.002 C 
ATOM      9  C   UNL     1      49.349  18.017  19.038  0.00  0.00    -0.039 C 
ATOM     10  C   UNL     1      48.965  17.788  17.574  0.00  0.00    +0.025 C 
ATOM     11  C   UNL     1      49.688  16.676  19.692  0.00  0.00    -0.009 C 
ATOM     12  C   UNL     1      50.861  16.030  18.953  0.00  0.00    +0.008 C 
ATOM     13  C   UNL     1      52.078  16.954  19.021  0.00  0.00    +0.005 C 
ATOM     14  C   UNL     1      51.725  18.268  18.365  0.00  0.00    -0.133 C 
ATOM     18  C   UNL     1      52.947  19.188  18.425  0.00  0.00    +0.008 C 
ATOM     19  C   UNL     1      48.177  18.665  19.777  0.00  0.00    -0.003 C 
ATOM     20  C   UNL     1      46.952  17.751  19.704  0.00  0.00    +0.012 C 
ATOM     21  C   UNL     1      45.859  18.318  20.606  0.00  0.00    +0.004 C 
ATOM     22  C   UNL     1      45.505  19.740  20.226  0.00  0.00    -0.020 C 
ENDROOT
BRANCH  14  15
ATOM     15  C   UNL     1      51.340  18.038  16.927  0.00  0.00    +0.526 C 
ATOM     16  O   UNL     1      51.072  18.985  16.208  0.00  0.00    -0.696 OA
ATOM     17  O   UNL     1      51.298  16.903  16.481  0.00  0.00    -0.689 OA
ENDBRANCH  14  15
TORSDOF 1
ENDMDL
MODEL 7
REMARK VINA RESULT:      -5.3      3.092      5.909
REMARK  Name = ZINC95486106
REMARK  4 active torsions:
REMARK  status: ('A' for Active; 'I' for Inactive)
REMARK    1  A    between atoms: C1_1  and  C2_2
REMARK    2  A    between atoms: C13_19  and  C20_28
REMARK    3  A    between atoms: C17_23  and  C18_24
REMARK    4  A    between atoms: C17_23  and  C19_25
REMARK                            x       y       z     vdW  Elec       q    Type
REMARK                         _______ _______ _______ _____ _____    ______ ____
ROOT
ATOM      1  C   UNL     1      45.767  13.502  19.984  0.00  0.00    +0.014 C 
ATOM      2  C   UNL     1      46.776  14.527  19.458  0.00  0.00    -0.021 C 
ATOM      3  C   UNL     1      47.698  13.976  18.356  0.00  0.00    +0.004 C 
ATOM      4  C   UNL     1      47.534  15.341  17.657  0.00  0.00    -0.026 C 
ATOM      5  C   UNL     1      48.619  16.327  18.051  0.00  0.00    +0.011 C 
ATOM      6  C   UNL     1      49.677  16.422  16.950  0.00  0.00    -0.014 C 
ATOM      7  C   UNL     1      50.797  17.361  17.404  0.00  0.00    +0.031 C 
ATOM      8  C   UNL     1      50.220  18.749  17.685  0.00  0.00    +0.002 C 
ATOM      9  C   UNL     1      49.177  18.647  18.775  0.00  0.00    -0.039 C 
ATOM     10  C   UNL     1      49.824  18.094  20.047  0.00  0.00    +0.025 C 
ATOM     11  C   UNL     1      48.605  20.038  19.056  0.00  0.00    -0.009 C 
ATOM     12  C   UNL     1      49.731  20.972  19.503  0.00  0.00    +0.008 C 
ATOM     13  C   UNL     1      50.784  21.067  18.398  0.00  0.00    +0.005 C 
ATOM     14  C   UNL     1      51.341  19.686  18.140  0.00  0.00    -0.133 C 
ATOM     18  C   UNL     1      52.402  19.784  17.041  0.00  0.00    +0.008 C 
ATOM     19  C   UNL     1      48.053  17.712  18.326  0.00  0.00    -0.003 C 
ATOM     20  C   UNL     1      47.000  17.604  19.431  0.00  0.00    +0.012 C 
ATOM     21  C   UNL     1      45.799  16.830  18.894  0.00  0.00    +0.004 C 
ATOM     22  C   UNL     1      46.202  15.462  18.384  0.00  0.00    -0.020 C 
ENDROOT
BRANCH  14  15
ATOM     15  C   UNL     1      51.969  19.142  19.397  0.00  0.00    +0.526 C 
ATOM     16  O   UNL     1      51.959  19.807  20.419  0.00  0.00    -0.696 OA
ATOM     17  O   UNL     1      52.488  18.039  19.392  0.00  0.00    -0.689 OA
ENDBRANCH  14  15
TORSDOF 1
ENDMDL
MODEL 8
REMARK VINA RESULT:      -5.2      1.748      3.263
REMARK  Name = ZINC95486106
REMARK  4 active torsions:
REMARK  status: ('A' for Active; 'I' for Inactive)
REMARK    1  A    between atoms: C1_1  and  C2_2
REMARK    2  A    between atoms: C13_19  and  C20_28
REMARK    3  A    between atoms: C17_23  and  C18_24
REMARK    4  A    between atoms: C17_23  and  C19_25
REMARK                            x       y       z     vdW  Elec       q    Type
REMARK                         _______ _______ _______ _____ _____    ______ ____
ROOT
ATOM      1  C   UNL     1      53.406  16.480  19.125  0.00  0.00    +0.014 C 
ATOM      2  C   UNL     1      52.142  17.344  19.116  0.00  0.00    -0.021 C 
ATOM      3  C   UNL     1      52.422  18.851  19.261  0.00  0.00    +0.004 C 
ATOM      4  C   UNL     1      51.313  19.071  18.213  0.00  0.00    -0.026 C 
ATOM      5  C   UNL     1      49.950  19.278  18.847  0.00  0.00    +0.011 C 
ATOM      6  C   UNL     1      49.586  20.764  18.851  0.00  0.00    -0.014 C 
ATOM      7  C   UNL     1      48.245  20.956  19.565  0.00  0.00    +0.031 C 
ATOM      8  C   UNL     1      47.160  20.161  18.838  0.00  0.00    +0.002 C 
ATOM      9  C   UNL     1      47.525  18.694  18.840  0.00  0.00    -0.039 C 
ATOM     10  C   UNL     1      47.640  18.201  20.285  0.00  0.00    +0.025 C 
ATOM     11  C   UNL     1      46.436  17.902  18.115  0.00  0.00    -0.009 C 
ATOM     12  C   UNL     1      45.098  18.103  18.831  0.00  0.00    +0.008 C 
ATOM     13  C   UNL     1      44.737  19.589  18.828  0.00  0.00    +0.005 C 
ATOM     14  C   UNL     1      45.821  20.352  19.553  0.00  0.00    -0.133 C 
ATOM     18  C   UNL     1      45.452  21.837  19.560  0.00  0.00    +0.008 C 
ATOM     19  C   UNL     1      48.863  18.496  18.126  0.00  0.00    -0.003 C 
ATOM     20  C   UNL     1      49.237  17.012  18.132  0.00  0.00    +0.012 C 
ATOM     21  C   UNL     1      50.466  16.808  17.251  0.00  0.00    +0.004 C 
ATOM     22  C   UNL     1      51.626  17.668  17.707  0.00  0.00    -0.020 C 
ENDROOT
BRANCH  14  15
ATOM     15  C   UNL     1      45.936  19.858  20.972  0.00  0.00    +0.526 C 
ATOM     16  O   UNL     1      45.209  18.961  21.366  0.00  0.00    -0.696 OA
ATOM     17  O   UNL     1      46.755  20.354  21.727  0.00  0.00    -0.689 OA
ENDBRANCH  14  15
TORSDOF 1
ENDMDL
MODEL 9
REMARK VINA RESULT:      -5.2      2.721      4.800
REMARK  Name = ZINC95486106
REMARK  4 active torsions:
REMARK  status: ('A' for Active; 'I' for Inactive)
REMARK    1  A    between atoms: C1_1  and  C2_2
REMARK    2  A    between atoms: C13_19  and  C20_28
REMARK    3  A    between atoms: C17_23  and  C18_24
REMARK    4  A    between atoms: C17_23  and  C19_25
REMARK                            x       y       z     vdW  Elec       q    Type
REMARK                         _______ _______ _______ _____ _____    ______ ____
ROOT
ATOM      1  C   UNL     1      46.219  12.173  17.156  0.00  0.00    +0.014 C 
ATOM      2  C   UNL     1      45.975  13.431  17.994  0.00  0.00    -0.021 C 
ATOM      3  C   UNL     1      44.920  13.244  19.098  0.00  0.00    +0.004 C 
ATOM      4  C   UNL     1      45.837  14.093  20.000  0.00  0.00    -0.026 C 
ATOM      5  C   UNL     1      45.495  15.572  19.944  0.00  0.00    +0.011 C 
ATOM      6  C   UNL     1      44.693  15.978  21.182  0.00  0.00    -0.014 C 
ATOM      7  C   UNL     1      44.293  17.451  21.065  0.00  0.00    +0.031 C 
ATOM      8  C   UNL     1      45.549  18.316  20.958  0.00  0.00    +0.002 C 
ATOM      9  C   UNL     1      46.335  17.910  19.732  0.00  0.00    -0.039 C 
ATOM     10  C   UNL     1      45.470  18.107  18.485  0.00  0.00    +0.025 C 
ATOM     11  C   UNL     1      47.589  18.780  19.626  0.00  0.00    -0.009 C 
ATOM     12  C   UNL     1      47.182  20.251  19.516  0.00  0.00    +0.008 C 
ATOM     13  C   UNL     1      46.385  20.653  20.757  0.00  0.00    +0.005 C 
ATOM     14  C   UNL     1      45.148  19.788  20.840  0.00  0.00    -0.133 C 
ATOM     18  C   UNL     1      44.346  20.200  22.076  0.00  0.00    +0.008 C 
ATOM     19  C   UNL     1      46.740  16.439  19.844  0.00  0.00    -0.003 C 
ATOM     20  C   UNL     1      47.530  16.026  18.601  0.00  0.00    +0.012 C 
ATOM     21  C   UNL     1      48.091  14.623  18.816  0.00  0.00    +0.004 C 
ATOM     22  C   UNL     1      46.993  13.626  19.126  0.00  0.00    -0.020 C 
ENDROOT
BRANCH  14  15
ATOM     15  C   UNL     1      44.304  19.980  19.607  0.00  0.00    +0.526 C 
ATOM     16  O   UNL     1      44.675  20.735  18.725  0.00  0.00    -0.696 OA
ATOM     17  O   UNL     1      43.248  19.380  19.491  0.00  0.00    -0.689 OA
ENDBRANCH  14  15
TORSDOF 1
ENDMDL
