MODEL 1
REMARK VINA RESULT:      -6.5      0.000      0.000
REMARK  Name = ZINC14819573
REMARK  8 active torsions:
REMARK  status: ('A' for Active; 'I' for Inactive)
REMARK    1  A    between atoms: C1_1  and  C2_2
REMARK    2  A    between atoms: C2_2  and  C21_27
REMARK    3  A    between atoms: C3_3  and  C4_4
REMARK    4  A    between atoms: C4_4  and  C5_5
REMARK    5  A    between atoms: C6_6  and  O5_25
REMARK    6  A    between atoms: C12_14  and  O4_24
REMARK    7  A    between atoms: C18_21  and  O3_23
REMARK    8  A    between atoms: O5_25  and  C20_26
REMARK                            x       y       z     vdW  Elec       q    Type
REMARK                         _______ _______ _______ _____ _____    ______ ____
ROOT
ATOM      6  C   UNL     1      49.483  17.759  18.157  0.00  0.00    -0.119 A 
ATOM      7  C   UNL     1      49.317  16.507  17.574  0.00  0.00    +0.178 A 
ATOM     10  C   UNL     1      48.063  15.947  17.397  0.00  0.00    -0.106 A 
ATOM     11  C   UNL     1      46.911  16.613  17.798  0.00  0.00    +0.123 A 
ATOM     12  C   UNL     1      47.064  17.851  18.380  0.00  0.00    -0.230 A 
ATOM     13  C   UNL     1      46.102  18.833  18.935  0.00  0.00    +0.108 C 
ATOM     16  C   UNL     1      44.787  19.079  18.238  0.00  0.00    +0.258 C 
ATOM     17  O   UNL     1      44.219  20.302  18.722  0.00  0.00    -0.319 OA
ATOM     18  C   UNL     1      44.850  21.079  19.635  0.00  0.00    +0.168 A 
ATOM     19  C   UNL     1      46.250  21.093  19.723  0.00  0.00    -0.149 A 
ATOM     20  C   UNL     1      46.897  21.899  20.622  0.00  0.00    +0.092 A 
ATOM     21  C   UNL     1      46.164  22.705  21.476  0.00  0.00    -0.037 A 
ATOM     22  C   UNL     1      44.778  22.690  21.417  0.00  0.00    +0.145 A 
ATOM     25  C   UNL     1      44.124  21.882  20.500  0.00  0.00    -0.034 A 
ATOM     26  C   UNL     1      46.940  20.151  18.791  0.00  0.00    +0.241 C 
ATOM     27  O   UNL     1      48.233  19.669  19.129  0.00  0.00    -0.264 OA
ATOM     28  C   UNL     1      48.338  18.437  18.555  0.00  0.00    +0.155 A 
ENDROOT
BRANCH   7   8
ATOM      8  O   UNL     1      50.413  15.813  17.171  0.00  0.00    -0.306 OA
ATOM      9  C   UNL     1      50.203  14.475  16.713  0.00  0.00    +0.245 C 
ENDBRANCH   7   8
BRANCH  13  14
ATOM     14  O   UNL     1      45.871  18.555  20.317  0.00  0.00    -0.529 OA
ATOM     15  H   UNL     1      46.629  18.162  20.772  0.00  0.00    +0.380 HD
ENDBRANCH  13  14
BRANCH  22  23
ATOM     23  O   UNL     1      44.057  23.474  22.261  0.00  0.00    -0.496 OA
ATOM     24  H   UNL     1      44.387  24.380  22.335  0.00  0.00    +0.395 HD
ENDBRANCH  22  23
BRANCH   6   5
ATOM      5  C   UNL     1      50.853  18.358  18.346  0.00  0.00    +0.132 C 
BRANCH   5   4
ATOM      1  C   UNL     1      51.191  21.140  18.627  0.00  0.00    +0.075 C 
ATOM      2  C   UNL     1      51.360  20.494  17.277  0.00  0.00    -0.126 C 
ATOM      3  C   UNL     1      51.710  21.336  16.077  0.00  0.00    +0.071 C 
ATOM      4  C   UNL     1      51.204  19.200  17.146  0.00  0.00    -0.053 C 
ENDBRANCH   5   4
ENDBRANCH   6   5
TORSDOF 5
ENDMDL
MODEL 2
REMARK VINA RESULT:      -6.1      2.924      6.462
REMARK  Name = ZINC14819573
REMARK  8 active torsions:
REMARK  status: ('A' for Active; 'I' for Inactive)
REMARK    1  A    between atoms: C1_1  and  C2_2
REMARK    2  A    between atoms: C2_2  and  C21_27
REMARK    3  A    between atoms: C3_3  and  C4_4
REMARK    4  A    between atoms: C4_4  and  C5_5
REMARK    5  A    between atoms: C6_6  and  O5_25
REMARK    6  A    between atoms: C12_14  and  O4_24
REMARK    7  A    between atoms: C18_21  and  O3_23
REMARK    8  A    between atoms: O5_25  and  C20_26
REMARK                            x       y       z     vdW  Elec       q    Type
REMARK                         _______ _______ _______ _____ _____    ______ ____
ROOT
ATOM      6  C   UNL     1      46.554  16.312  20.139  0.00  0.00    -0.119 A 
ATOM      7  C   UNL     1      46.032  15.043  19.908  0.00  0.00    +0.178 A 
ATOM     10  C   UNL     1      46.532  14.220  18.914  0.00  0.00    -0.106 A 
ATOM     11  C   UNL     1      47.579  14.629  18.096  0.00  0.00    +0.123 A 
ATOM     12  C   UNL     1      48.100  15.884  18.312  0.00  0.00    -0.230 A 
ATOM     13  C   UNL     1      49.180  16.658  17.654  0.00  0.00    +0.108 C 
ATOM     16  C   UNL     1      50.448  15.966  17.222  0.00  0.00    +0.258 C 
ATOM     17  O   UNL     1      51.461  16.948  16.975  0.00  0.00    -0.319 OA
ATOM     18  C   UNL     1      51.244  18.272  17.167  0.00  0.00    +0.168 A 
ATOM     19  C   UNL     1      50.315  18.718  18.119  0.00  0.00    -0.149 A 
ATOM     20  C   UNL     1      50.112  20.054  18.341  0.00  0.00    +0.092 A 
ATOM     21  C   UNL     1      50.818  20.990  17.603  0.00  0.00    -0.037 A 
ATOM     22  C   UNL     1      51.726  20.567  16.644  0.00  0.00    +0.145 A 
ATOM     25  C   UNL     1      51.940  19.215  16.427  0.00  0.00    -0.034 A 
ATOM     26  C   UNL     1      49.575  17.628  18.822  0.00  0.00    +0.241 C 
ATOM     27  O   UNL     1      48.292  17.905  19.368  0.00  0.00    -0.264 OA
ATOM     28  C   UNL     1      47.605  16.728  19.333  0.00  0.00    +0.155 A 
ENDROOT
BRANCH   7   8
ATOM      8  O   UNL     1      45.002  14.600  20.677  0.00  0.00    -0.306 OA
ATOM      9  C   UNL     1      45.277  13.518  21.570  0.00  0.00    +0.245 C 
ENDBRANCH   7   8
BRANCH  13  14
ATOM     14  O   UNL     1      48.642  17.407  16.563  0.00  0.00    -0.529 OA
ATOM     15  H   UNL     1      48.293  18.273  16.815  0.00  0.00    +0.380 HD
ENDBRANCH  13  14
BRANCH  22  23
ATOM     23  O   UNL     1      52.413  21.484  15.913  0.00  0.00    -0.496 OA
ATOM     24  H   UNL     1      52.820  21.125  15.113  0.00  0.00    +0.395 HD
ENDBRANCH  22  23
BRANCH   6   5
ATOM      5  C   UNL     1      46.000  17.200  21.224  0.00  0.00    +0.132 C 
BRANCH   5   4
ATOM      1  C   UNL     1      43.377  17.134  22.249  0.00  0.00    +0.075 C 
ATOM      2  C   UNL     1      43.721  18.070  21.120  0.00  0.00    -0.126 C 
ATOM      3  C   UNL     1      42.662  18.971  20.539  0.00  0.00    +0.071 C 
ATOM      4  C   UNL     1      44.941  18.101  20.643  0.00  0.00    -0.053 C 
ENDBRANCH   5   4
ENDBRANCH   6   5
TORSDOF 5
ENDMDL
MODEL 3
REMARK VINA RESULT:      -6.1      3.078      5.289
REMARK  Name = ZINC14819573
REMARK  8 active torsions:
REMARK  status: ('A' for Active; 'I' for Inactive)
REMARK    1  A    between atoms: C1_1  and  C2_2
REMARK    2  A    between atoms: C2_2  and  C21_27
REMARK    3  A    between atoms: C3_3  and  C4_4
REMARK    4  A    between atoms: C4_4  and  C5_5
REMARK    5  A    between atoms: C6_6  and  O5_25
REMARK    6  A    between atoms: C12_14  and  O4_24
REMARK    7  A    between atoms: C18_21  and  O3_23
REMARK    8  A    between atoms: O5_25  and  C20_26
REMARK                            x       y       z     vdW  Elec       q    Type
REMARK                         _______ _______ _______ _____ _____    ______ ____
ROOT
ATOM      6  C   UNL     1      47.238  18.621  21.318  0.00  0.00    -0.119 A 
ATOM      7  C   UNL     1      48.543  19.103  21.286  0.00  0.00    +0.178 A 
ATOM     10  C   UNL     1      48.848  20.340  20.746  0.00  0.00    -0.106 A 
ATOM     11  C   UNL     1      47.861  21.158  20.208  0.00  0.00    +0.123 A 
ATOM     12  C   UNL     1      46.568  20.689  20.230  0.00  0.00    -0.230 A 
ATOM     13  C   UNL     1      45.281  21.249  19.750  0.00  0.00    +0.108 C 
ATOM     16  C   UNL     1      44.986  22.717  19.923  0.00  0.00    +0.258 C 
ATOM     17  O   UNL     1      43.582  22.940  19.744  0.00  0.00    -0.319 OA
ATOM     18  C   UNL     1      42.716  21.926  19.502  0.00  0.00    +0.168 A 
ATOM     19  C   UNL     1      42.975  20.630  19.973  0.00  0.00    -0.149 A 
ATOM     20  C   UNL     1      42.090  19.608  19.758  0.00  0.00    +0.092 A 
ATOM     21  C   UNL     1      40.924  19.842  19.049  0.00  0.00    -0.037 A 
ATOM     22  C   UNL     1      40.660  21.113  18.560  0.00  0.00    +0.145 A 
ATOM     25  C   UNL     1      41.551  22.151  18.786  0.00  0.00    -0.034 A 
ATOM     26  C   UNL     1      44.281  20.477  20.680  0.00  0.00    +0.241 C 
ATOM     27  O   UNL     1      44.901  19.199  20.717  0.00  0.00    -0.264 OA
ATOM     28  C   UNL     1      46.243  19.432  20.789  0.00  0.00    +0.155 A 
ENDROOT
BRANCH   7   8
ATOM      8  O   UNL     1      49.544  18.338  21.794  0.00  0.00    -0.306 OA
ATOM      9  C   UNL     1      50.560  17.909  20.884  0.00  0.00    +0.245 C 
ENDBRANCH   7   8
BRANCH  13  14
ATOM     14  O   UNL     1      45.067  20.870  18.389  0.00  0.00    -0.529 OA
ATOM     15  H   UNL     1      45.498  20.042  18.139  0.00  0.00    +0.380 HD
ENDBRANCH  13  14
BRANCH  22  23
ATOM     23  O   UNL     1      39.521  21.343  17.856  0.00  0.00    -0.496 OA
ATOM     24  H   UNL     1      39.064  20.538  17.573  0.00  0.00    +0.395 HD
ENDBRANCH  22  23
BRANCH   6   5
ATOM      5  C   UNL     1      46.917  17.271  21.907  0.00  0.00    +0.132 C 
BRANCH   5   4
ATOM      1  C   UNL     1      44.485  15.879  21.614  0.00  0.00    +0.075 C 
ATOM      2  C   UNL     1      45.622  15.618  20.660  0.00  0.00    -0.126 C 
ATOM      3  C   UNL     1      45.458  14.612  19.550  0.00  0.00    +0.071 C 
ATOM      4  C   UNL     1      46.753  16.265  20.796  0.00  0.00    -0.053 C 
ENDBRANCH   5   4
ENDBRANCH   6   5
TORSDOF 5
ENDMDL
MODEL 4
REMARK VINA RESULT:      -6.0      2.166      6.337
REMARK  Name = ZINC14819573
REMARK  8 active torsions:
REMARK  status: ('A' for Active; 'I' for Inactive)
REMARK    1  A    between atoms: C1_1  and  C2_2
REMARK    2  A    between atoms: C2_2  and  C21_27
REMARK    3  A    between atoms: C3_3  and  C4_4
REMARK    4  A    between atoms: C4_4  and  C5_5
REMARK    5  A    between atoms: C6_6  and  O5_25
REMARK    6  A    between atoms: C12_14  and  O4_24
REMARK    7  A    between atoms: C18_21  and  O3_23
REMARK    8  A    between atoms: O5_25  and  C20_26
REMARK                            x       y       z     vdW  Elec       q    Type
REMARK                         _______ _______ _______ _____ _____    ______ ____
ROOT
ATOM      6  C   UNL     1      44.840  19.616  21.091  0.00  0.00    -0.119 A 
ATOM      7  C   UNL     1      43.860  18.639  21.239  0.00  0.00    +0.178 A 
ATOM     10  C   UNL     1      44.019  17.364  20.724  0.00  0.00    -0.106 A 
ATOM     11  C   UNL     1      45.168  17.003  20.030  0.00  0.00    +0.123 A 
ATOM     12  C   UNL     1      46.141  17.963  19.872  0.00  0.00    -0.230 A 
ATOM     13  C   UNL     1      47.462  17.963  19.198  0.00  0.00    +0.108 C 
ATOM     16  C   UNL     1      48.358  16.754  19.294  0.00  0.00    +0.258 C 
ATOM     17  O   UNL     1      49.688  17.121  18.907  0.00  0.00    -0.319 OA
ATOM     18  C   UNL     1      50.014  18.390  18.562  0.00  0.00    +0.168 A 
ATOM     19  C   UNL     1      49.313  19.483  19.093  0.00  0.00    -0.149 A 
ATOM     20  C   UNL     1      49.657  20.769  18.774  0.00  0.00    +0.092 A 
ATOM     21  C   UNL     1      50.702  21.006  17.896  0.00  0.00    -0.037 A 
ATOM     22  C   UNL     1      51.395  19.937  17.347  0.00  0.00    +0.145 A 
ATOM     25  C   UNL     1      51.054  18.635  17.678  0.00  0.00    -0.034 A 
ATOM     26  C   UNL     1      48.176  19.115  19.987  0.00  0.00    +0.241 C 
ATOM     27  O   UNL     1      47.095  20.025  20.141  0.00  0.00    -0.264 OA
ATOM     28  C   UNL     1      45.995  19.264  20.404  0.00  0.00    +0.155 A 
ENDROOT
BRANCH   7   8
ATOM      8  O   UNL     1      42.716  18.945  21.905  0.00  0.00    -0.306 OA
ATOM      9  C   UNL     1      41.493  18.853  21.171  0.00  0.00    +0.245 C 
ENDBRANCH   7   8
BRANCH  13  14
ATOM     14  O   UNL     1      47.305  18.340  17.829  0.00  0.00    -0.529 OA
ATOM     15  H   UNL     1      47.464  17.620  17.202  0.00  0.00    +0.380 HD
ENDBRANCH  13  14
BRANCH  22  23
ATOM     23  O   UNL     1      52.414  20.167  16.479  0.00  0.00    -0.496 OA
ATOM     24  H   UNL     1      52.132  20.525  15.626  0.00  0.00    +0.395 HD
ENDBRANCH  22  23
BRANCH   6   5
ATOM      5  C   UNL     1      44.656  21.001  21.655  0.00  0.00    +0.132 C 
BRANCH   5   4
ATOM      1  C   UNL     1      46.157  23.348  21.238  0.00  0.00    +0.075 C 
ATOM      2  C   UNL     1      44.978  23.040  20.351  0.00  0.00    -0.126 C 
ATOM      3  C   UNL     1      44.602  23.989  19.242  0.00  0.00    +0.071 C 
ATOM      4  C   UNL     1      44.280  21.949  20.545  0.00  0.00    -0.053 C 
ENDBRANCH   5   4
ENDBRANCH   6   5
TORSDOF 5
ENDMDL
MODEL 5
REMARK VINA RESULT:      -5.9      2.023      7.693
REMARK  Name = ZINC14819573
REMARK  8 active torsions:
REMARK  status: ('A' for Active; 'I' for Inactive)
REMARK    1  A    between atoms: C1_1  and  C2_2
REMARK    2  A    between atoms: C2_2  and  C21_27
REMARK    3  A    between atoms: C3_3  and  C4_4
REMARK    4  A    between atoms: C4_4  and  C5_5
REMARK    5  A    between atoms: C6_6  and  O5_25
REMARK    6  A    between atoms: C12_14  and  O4_24
REMARK    7  A    between atoms: C18_21  and  O3_23
REMARK    8  A    between atoms: O5_25  and  C20_26
REMARK                            x       y       z     vdW  Elec       q    Type
REMARK                         _______ _______ _______ _____ _____    ______ ____
ROOT
ATOM      6  C   UNL     1      45.025  20.148  19.052  0.00  0.00    -0.119 A 
ATOM      7  C   UNL     1      45.437  21.276  19.754  0.00  0.00    +0.178 A 
ATOM     10  C   UNL     1      46.759  21.465  20.116  0.00  0.00    -0.106 A 
ATOM     11  C   UNL     1      47.737  20.531  19.797  0.00  0.00    +0.123 A 
ATOM     12  C   UNL     1      47.340  19.408  19.107  0.00  0.00    -0.230 A 
ATOM     13  C   UNL     1      48.067  18.214  18.614  0.00  0.00    +0.108 C 
ATOM     16  C   UNL     1      49.445  18.362  18.019  0.00  0.00    +0.258 C 
ATOM     17  O   UNL     1      49.773  17.175  17.287  0.00  0.00    -0.319 OA
ATOM     18  C   UNL     1      48.905  16.142  17.163  0.00  0.00    +0.168 A 
ATOM     19  C   UNL     1      47.519  16.358  17.199  0.00  0.00    -0.149 A 
ATOM     20  C   UNL     1      46.635  15.324  17.043  0.00  0.00    +0.092 A 
ATOM     21  C   UNL     1      47.108  14.034  16.865  0.00  0.00    -0.037 A 
ATOM     22  C   UNL     1      48.475  13.799  16.845  0.00  0.00    +0.145 A 
ATOM     25  C   UNL     1      49.370  14.847  16.992  0.00  0.00    -0.034 A 
ATOM     26  C   UNL     1      47.118  17.775  17.445  0.00  0.00    +0.241 C 
ATOM     27  O   UNL     1      45.852  18.043  18.031  0.00  0.00    -0.264 OA
ATOM     28  C   UNL     1      45.995  19.210  18.721  0.00  0.00    +0.155 A 
ENDROOT
BRANCH   7   8
ATOM      8  O   UNL     1      44.516  22.216  20.096  0.00  0.00    -0.306 OA
ATOM      9  C   UNL     1      44.721  22.906  21.331  0.00  0.00    +0.245 C 
ENDBRANCH   7   8
BRANCH  13  14
ATOM     14  O   UNL     1      48.085  17.207  19.627  0.00  0.00    -0.529 OA
ATOM     15  H   UNL     1      47.290  17.187  20.177  0.00  0.00    +0.380 HD
ENDBRANCH  13  14
BRANCH  22  23
ATOM     23  O   UNL     1      48.940  12.533  16.680  0.00  0.00    -0.496 OA
ATOM     24  H   UNL     1      49.799  12.372  17.094  0.00  0.00    +0.395 HD
ENDBRANCH  22  23
BRANCH   6   5
ATOM      5  C   UNL     1      43.581  19.952  18.663  0.00  0.00    +0.132 C 
BRANCH   5   4
ATOM      1  C   UNL     1      40.889  20.586  19.195  0.00  0.00    +0.075 C 
ATOM      2  C   UNL     1      41.599  19.552  20.031  0.00  0.00    -0.126 C 
ATOM      3  C   UNL     1      40.867  18.856  21.150  0.00  0.00    +0.071 C 
ATOM      4  C   UNL     1      42.851  19.256  19.783  0.00  0.00    -0.053 C 
ENDBRANCH   5   4
ENDBRANCH   6   5
TORSDOF 5
ENDMDL
MODEL 6
REMARK VINA RESULT:      -5.8      1.800      6.562
REMARK  Name = ZINC14819573
REMARK  8 active torsions:
REMARK  status: ('A' for Active; 'I' for Inactive)
REMARK    1  A    between atoms: C1_1  and  C2_2
REMARK    2  A    between atoms: C2_2  and  C21_27
REMARK    3  A    between atoms: C3_3  and  C4_4
REMARK    4  A    between atoms: C4_4  and  C5_5
REMARK    5  A    between atoms: C6_6  and  O5_25
REMARK    6  A    between atoms: C12_14  and  O4_24
REMARK    7  A    between atoms: C18_21  and  O3_23
REMARK    8  A    between atoms: O5_25  and  C20_26
REMARK                            x       y       z     vdW  Elec       q    Type
REMARK                         _______ _______ _______ _____ _____    ______ ____
ROOT
ATOM      6  C   UNL     1      48.045  19.788  19.089  0.00  0.00    -0.119 A 
ATOM      7  C   UNL     1      46.828  20.429  19.299  0.00  0.00    +0.178 A 
ATOM     10  C   UNL     1      45.624  19.822  18.987  0.00  0.00    -0.106 A 
ATOM     11  C   UNL     1      45.577  18.543  18.445  0.00  0.00    +0.123 A 
ATOM     12  C   UNL     1      46.775  17.902  18.228  0.00  0.00    -0.230 A 
ATOM     13  C   UNL     1      47.126  16.575  17.668  0.00  0.00    +0.108 C 
ATOM     16  C   UNL     1      46.289  15.367  18.008  0.00  0.00    +0.258 C 
ATOM     17  O   UNL     1      47.020  14.180  17.679  0.00  0.00    -0.319 OA
ATOM     18  C   UNL     1      48.280  14.223  17.181  0.00  0.00    +0.168 A 
ATOM     19  C   UNL     1      49.140  15.286  17.492  0.00  0.00    -0.149 A 
ATOM     20  C   UNL     1      50.424  15.321  17.018  0.00  0.00    +0.092 A 
ATOM     21  C   UNL     1      50.886  14.303  16.202  0.00  0.00    -0.037 A 
ATOM     22  C   UNL     1      50.043  13.252  15.868  0.00  0.00    +0.145 A 
ATOM     25  C   UNL     1      48.746  13.211  16.357  0.00  0.00    -0.034 A 
ATOM     26  C   UNL     1      48.527  16.354  18.337  0.00  0.00    +0.241 C 
ATOM     27  O   UNL     1      49.052  17.673  18.272  0.00  0.00    -0.264 OA
ATOM     28  C   UNL     1      48.011  18.507  18.554  0.00  0.00    +0.155 A 
ENDROOT
BRANCH   7   8
ATOM      8  O   UNL     1      46.821  21.683  19.820  0.00  0.00    -0.306 OA
ATOM      9  C   UNL     1      46.108  21.873  21.045  0.00  0.00    +0.245 C 
ENDBRANCH   7   8
BRANCH  13  14
ATOM     14  O   UNL     1      47.277  16.674  16.250  0.00  0.00    -0.529 OA
ATOM     15  H   UNL     1      48.197  16.687  15.952  0.00  0.00    +0.380 HD
ENDBRANCH  13  14
BRANCH  22  23
ATOM     23  O   UNL     1      50.492  12.257  15.060  0.00  0.00    -0.496 OA
ATOM     24  H   UNL     1      49.819  11.901  14.463  0.00  0.00    +0.395 HD
ENDBRANCH  22  23
BRANCH   6   5
ATOM      5  C   UNL     1      49.351  20.459  19.431  0.00  0.00    +0.132 C 
BRANCH   5   4
ATOM      1  C   UNL     1      51.860  19.539  18.540  0.00  0.00    +0.075 C 
ATOM      2  C   UNL     1      51.130  20.605  17.765  0.00  0.00    -0.126 C 
ATOM      3  C   UNL     1      51.743  21.179  16.513  0.00  0.00    +0.071 C 
ATOM      4  C   UNL     1      49.963  21.033  18.179  0.00  0.00    -0.053 C 
ENDBRANCH   5   4
ENDBRANCH   6   5
TORSDOF 5
ENDMDL
MODEL 7
REMARK VINA RESULT:      -5.6      3.201      7.635
REMARK  Name = ZINC14819573
REMARK  8 active torsions:
REMARK  status: ('A' for Active; 'I' for Inactive)
REMARK    1  A    between atoms: C1_1  and  C2_2
REMARK    2  A    between atoms: C2_2  and  C21_27
REMARK    3  A    between atoms: C3_3  and  C4_4
REMARK    4  A    between atoms: C4_4  and  C5_5
REMARK    5  A    between atoms: C6_6  and  O5_25
REMARK    6  A    between atoms: C12_14  and  O4_24
REMARK    7  A    between atoms: C18_21  and  O3_23
REMARK    8  A    between atoms: O5_25  and  C20_26
REMARK                            x       y       z     vdW  Elec       q    Type
REMARK                         _______ _______ _______ _____ _____    ______ ____
ROOT
ATOM      6  C   UNL     1      44.954  17.764  19.549  0.00  0.00    -0.119 A 
ATOM      7  C   UNL     1      44.272  17.932  20.750  0.00  0.00    +0.178 A 
ATOM     10  C   UNL     1      44.096  16.886  21.639  0.00  0.00    -0.106 A 
ATOM     11  C   UNL     1      44.592  15.616  21.368  0.00  0.00    +0.123 A 
ATOM     12  C   UNL     1      45.263  15.437  20.181  0.00  0.00    -0.230 A 
ATOM     13  C   UNL     1      45.905  14.259  19.549  0.00  0.00    +0.108 C 
ATOM     16  C   UNL     1      46.686  13.282  20.392  0.00  0.00    +0.258 C 
ATOM     17  O   UNL     1      47.506  12.474  19.539  0.00  0.00    -0.319 OA
ATOM     18  C   UNL     1      47.547  12.654  18.197  0.00  0.00    +0.168 A 
ATOM     19  C   UNL     1      47.303  13.914  17.631  0.00  0.00    -0.149 A 
ATOM     20  C   UNL     1      47.372  14.110  16.278  0.00  0.00    +0.092 A 
ATOM     21  C   UNL     1      47.670  13.047  15.442  0.00  0.00    -0.037 A 
ATOM     22  C   UNL     1      47.896  11.789  15.982  0.00  0.00    +0.145 A 
ATOM     25  C   UNL     1      47.836  11.593  17.353  0.00  0.00    -0.034 A 
ATOM     26  C   UNL     1      46.942  14.977  18.616  0.00  0.00    +0.241 C 
ATOM     27  O   UNL     1      46.169  16.087  18.183  0.00  0.00    -0.264 OA
ATOM     28  C   UNL     1      45.459  16.501  19.271  0.00  0.00    +0.155 A 
ENDROOT
BRANCH   7   8
ATOM      8  O   UNL     1      43.763  19.154  21.058  0.00  0.00    -0.306 OA
ATOM      9  C   UNL     1      42.340  19.287  21.041  0.00  0.00    +0.245 C 
ENDBRANCH   7   8
BRANCH  13  14
ATOM     14  O   UNL     1      44.948  13.555  18.756  0.00  0.00    -0.529 OA
ATOM     15  H   UNL     1      44.487  12.849  19.230  0.00  0.00    +0.380 HD
ENDBRANCH  13  14
BRANCH  22  23
ATOM     23  O   UNL     1      48.180  10.744  15.162  0.00  0.00    -0.496 OA
ATOM     24  H   UNL     1      47.669   9.944  15.353  0.00  0.00    +0.395 HD
ENDBRANCH  22  23
BRANCH   6   5
ATOM      5  C   UNL     1      45.138  18.910  18.587  0.00  0.00    +0.132 C 
BRANCH   5   4
ATOM      1  C   UNL     1      45.922  21.402  19.642  0.00  0.00    +0.075 C 
ATOM      2  C   UNL     1      46.954  20.475  19.052  0.00  0.00    -0.126 C 
ATOM      3  C   UNL     1      48.405  20.881  19.027  0.00  0.00    +0.071 C 
ATOM      4  C   UNL     1      46.589  19.316  18.562  0.00  0.00    -0.053 C 
ENDBRANCH   5   4
ENDBRANCH   6   5
TORSDOF 5
ENDMDL
MODEL 8
REMARK VINA RESULT:      -5.6      2.787      7.514
REMARK  Name = ZINC14819573
REMARK  8 active torsions:
REMARK  status: ('A' for Active; 'I' for Inactive)
REMARK    1  A    between atoms: C1_1  and  C2_2
REMARK    2  A    between atoms: C2_2  and  C21_27
REMARK    3  A    between atoms: C3_3  and  C4_4
REMARK    4  A    between atoms: C4_4  and  C5_5
REMARK    5  A    between atoms: C6_6  and  O5_25
REMARK    6  A    between atoms: C12_14  and  O4_24
REMARK    7  A    between atoms: C18_21  and  O3_23
REMARK    8  A    between atoms: O5_25  and  C20_26
REMARK                            x       y       z     vdW  Elec       q    Type
REMARK                         _______ _______ _______ _____ _____    ______ ____
ROOT
ATOM      6  C   UNL     1      45.803  19.599  21.127  0.00  0.00    -0.119 A 
ATOM      7  C   UNL     1      46.459  20.812  20.941  0.00  0.00    +0.178 A 
ATOM     10  C   UNL     1      47.384  20.990  19.927  0.00  0.00    -0.106 A 
ATOM     11  C   UNL     1      47.702  19.961  19.049  0.00  0.00    +0.123 A 
ATOM     12  C   UNL     1      47.063  18.756  19.227  0.00  0.00    -0.230 A 
ATOM     13  C   UNL     1      47.145  17.454  18.522  0.00  0.00    +0.108 C 
ATOM     16  C   UNL     1      47.272  17.415  17.020  0.00  0.00    +0.258 C 
ATOM     17  O   UNL     1      46.953  16.099  16.553  0.00  0.00    -0.319 OA
ATOM     18  C   UNL     1      46.565  15.110  17.394  0.00  0.00    +0.168 A 
ATOM     19  C   UNL     1      45.901  15.405  18.594  0.00  0.00    -0.149 A 
ATOM     20  C   UNL     1      45.478  14.409  19.434  0.00  0.00    +0.092 A 
ATOM     21  C   UNL     1      45.723  13.085  19.111  0.00  0.00    -0.037 A 
ATOM     22  C   UNL     1      46.395  12.775  17.938  0.00  0.00    +0.145 A 
ATOM     25  C   UNL     1      46.813  13.782  17.082  0.00  0.00    -0.034 A 
ATOM     26  C   UNL     1      45.733  16.863  18.868  0.00  0.00    +0.241 C 
ATOM     27  O   UNL     1      45.596  17.302  20.213  0.00  0.00    -0.264 OA
ATOM     28  C   UNL     1      46.108  18.565  20.251  0.00  0.00    +0.155 A 
ENDROOT
BRANCH   7   8
ATOM      8  O   UNL     1      46.188  21.847  21.778  0.00  0.00    -0.306 OA
ATOM      9  C   UNL     1      45.453  22.946  21.234  0.00  0.00    +0.245 C 
ENDBRANCH   7   8
BRANCH  13  14
ATOM     14  O   UNL     1      48.165  16.647  19.114  0.00  0.00    -0.529 OA
ATOM     15  H   UNL     1      48.419  16.924  20.004  0.00  0.00    +0.380 HD
ENDBRANCH  13  14
BRANCH  22  23
ATOM     23  O   UNL     1      46.643  11.477  17.624  0.00  0.00    -0.496 OA
ATOM     24  H   UNL     1      46.033  11.106  16.972  0.00  0.00    +0.395 HD
ENDBRANCH  22  23
BRANCH   6   5
ATOM      5  C   UNL     1      44.798  19.415  22.236  0.00  0.00    +0.132 C 
BRANCH   5   4
ATOM      1  C   UNL     1      42.954  17.286  22.250  0.00  0.00    +0.075 C 
ATOM      2  C   UNL     1      42.550  18.628  21.697  0.00  0.00    -0.126 C 
ATOM      3  C   UNL     1      41.159  18.832  21.153  0.00  0.00    +0.071 C 
ATOM      4  C   UNL     1      43.407  19.619  21.691  0.00  0.00    -0.053 C 
ENDBRANCH   5   4
ENDBRANCH   6   5
TORSDOF 5
ENDMDL
MODEL 9
REMARK VINA RESULT:      -5.6      2.152      4.118
REMARK  Name = ZINC14819573
REMARK  8 active torsions:
REMARK  status: ('A' for Active; 'I' for Inactive)
REMARK    1  A    between atoms: C1_1  and  C2_2
REMARK    2  A    between atoms: C2_2  and  C21_27
REMARK    3  A    between atoms: C3_3  and  C4_4
REMARK    4  A    between atoms: C4_4  and  C5_5
REMARK    5  A    between atoms: C6_6  and  O5_25
REMARK    6  A    between atoms: C12_14  and  O4_24
REMARK    7  A    between atoms: C18_21  and  O3_23
REMARK    8  A    between atoms: O5_25  and  C20_26
REMARK                            x       y       z     vdW  Elec       q    Type
REMARK                         _______ _______ _______ _____ _____    ______ ____
ROOT
ATOM      6  C   UNL     1      49.805  18.323  18.346  0.00  0.00    -0.119 A 
ATOM      7  C   UNL     1      50.745  19.209  17.828  0.00  0.00    +0.178 A 
ATOM     10  C   UNL     1      50.649  20.574  18.034  0.00  0.00    -0.106 A 
ATOM     11  C   UNL     1      49.604  21.123  18.768  0.00  0.00    +0.123 A 
ATOM     12  C   UNL     1      48.666  20.257  19.281  0.00  0.00    -0.230 A 
ATOM     13  C   UNL     1      47.433  20.458  20.080  0.00  0.00    +0.108 C 
ATOM     16  C   UNL     1      47.409  21.486  21.183  0.00  0.00    +0.258 C 
ATOM     17  O   UNL     1      46.284  21.236  22.035  0.00  0.00    -0.319 OA
ATOM     18  C   UNL     1      45.445  20.191  21.835  0.00  0.00    +0.168 A 
ATOM     19  C   UNL     1      45.898  19.013  21.222  0.00  0.00    -0.149 A 
ATOM     20  C   UNL     1      45.064  17.941  21.044  0.00  0.00    +0.092 A 
ATOM     21  C   UNL     1      43.745  18.018  21.457  0.00  0.00    -0.037 A 
ATOM     22  C   UNL     1      43.275  19.182  22.047  0.00  0.00    +0.145 A 
ATOM     25  C   UNL     1      44.121  20.263  22.237  0.00  0.00    -0.034 A 
ATOM     26  C   UNL     1      47.321  19.055  20.772  0.00  0.00    +0.241 C 
ATOM     27  O   UNL     1      47.733  18.211  19.706  0.00  0.00    -0.264 OA
ATOM     28  C   UNL     1      48.760  18.860  19.086  0.00  0.00    +0.155 A 
ENDROOT
BRANCH   7   8
ATOM      8  O   UNL     1      51.782  18.722  17.098  0.00  0.00    -0.306 OA
ATOM      9  C   UNL     1      51.971  19.271  15.791  0.00  0.00    +0.245 C 
ENDBRANCH   7   8
BRANCH  13  14
ATOM     14  O   UNL     1      46.319  20.658  19.208  0.00  0.00    -0.529 OA
ATOM     15  H   UNL     1      46.086  19.880  18.682  0.00  0.00    +0.380 HD
ENDBRANCH  13  14
BRANCH  22  23
ATOM     23  O   UNL     1      41.978  19.262  22.444  0.00  0.00    -0.496 OA
ATOM     24  H   UNL     1      41.513  18.414  22.442  0.00  0.00    +0.395 HD
ENDBRANCH  22  23
BRANCH   6   5
ATOM      5  C   UNL     1      49.918  16.838  18.113  0.00  0.00    +0.132 C 
BRANCH   5   4
ATOM      1  C   UNL     1      48.178  14.767  18.900  0.00  0.00    +0.075 C 
ATOM      2  C   UNL     1      48.007  15.425  17.556  0.00  0.00    -0.126 C 
ATOM      3  C   UNL     1      46.903  14.976  16.632  0.00  0.00    +0.071 C 
ATOM      4  C   UNL     1      48.816  16.389  17.190  0.00  0.00    -0.053 C 
ENDBRANCH   5   4
ENDBRANCH   6   5
TORSDOF 5
ENDMDL
