MODEL 1
REMARK VINA RESULT:      -6.6      0.000      0.000
REMARK  Name = ZINC95485941
REMARK  6 active torsions:
REMARK  status: ('A' for Active; 'I' for Inactive)
REMARK    1  A    between atoms: C1_1  and  C2_2
REMARK    2  A    between atoms: C2_2  and  C3_3
REMARK    3  A    between atoms: C3_3  and  C23_37
REMARK    4  A    between atoms: C10_15  and  O6_34
REMARK    5  A    between atoms: C12_18  and  C21_33
REMARK    6  A    between atoms: C16_26  and  C17_28
REMARK                            x       y       z     vdW  Elec       q    Type
REMARK                         _______ _______ _______ _____ _____    ______ ____
ROOT
ATOM      3  C   UNL     1      45.003  20.274  20.232  0.00  0.00    +0.140 C 
ATOM      4  C   UNL     1      44.501  21.521  19.503  0.00  0.00    +0.043 C 
ATOM      5  C   UNL     1      45.702  19.341  19.254  0.00  0.00    -0.022 C 
ATOM      6  C   UNL     1      45.350  17.945  19.842  0.00  0.00    -0.040 C 
ATOM      7  C   UNL     1      43.888  18.186  20.228  0.00  0.00    +0.211 C 
ATOM      8  C   UNL     1      45.617  16.906  18.766  0.00  0.00    +0.070 C 
ATOM      9  C   UNL     1      47.113  17.058  18.455  0.00  0.00    +0.367 C 
ATOM     10  C   UNL     1      47.844  18.087  19.284  0.00  0.00    +0.020 C 
ATOM     11  C   UNL     1      49.303  18.243  18.873  0.00  0.00    +0.061 C 
ATOM     12  C   UNL     1      50.113  17.053  18.378  0.00  0.00    +0.127 C 
ATOM     13  C   UNL     1      51.612  17.111  18.608  0.00  0.00    +0.488 C 
ATOM     14  O   UNL     1      52.121  18.101  19.351  0.00  0.00    -0.309 OA
ATOM     15  C   UNL     1      51.509  19.313  19.261  0.00  0.00    +0.325 C 
ATOM     21  O   UNL     1      52.337  16.273  18.126  0.00  0.00    -0.423 OA
ATOM     22  O   UNL     1      49.605  18.065  17.490  0.00  0.00    -0.287 OA
ATOM     23  C   UNL     1      50.047  19.256  19.638  0.00  0.00    -0.073 C 
ATOM     24  C   UNL     1      49.974  18.838  21.108  0.00  0.00    +0.061 C 
ATOM     25  C   UNL     1      49.344  20.603  19.516  0.00  0.00    +0.040 C 
ATOM     26  C   UNL     1      47.879  20.462  19.960  0.00  0.00    +0.194 C 
ATOM     29  O   UNL     1      47.667  16.400  17.608  0.00  0.00    -0.424 OA
ATOM     30  C   UNL     1      47.180  19.445  19.078  0.00  0.00    +0.037 C 
ATOM     31  O   UNL     1      43.886  19.530  20.769  0.00  0.00    -0.378 OA
ENDROOT
BRANCH  15  16
ATOM     16  C   UNL     1      51.635  19.904  17.881  0.00  0.00    -0.233 A 
ATOM     17  C   UNL     1      51.145  21.159  17.454  0.00  0.00    -0.041 A 
ATOM     18  C   UNL     1      51.477  21.287  16.157  0.00  0.00    +0.169 A 
ATOM     19  O   UNL     1      52.138  20.182  15.777  0.00  0.00    -0.167 OA
ATOM     20  C   UNL     1      52.241  19.342  16.820  0.00  0.00    +0.194 A 
ENDBRANCH  15  16
BRANCH   3   2
ATOM      1  C   UNL     1      45.167  21.298  22.505  0.00  0.00    -0.002 C 
ATOM      2  C   UNL     1      45.961  20.672  21.356  0.00  0.00    -0.021 C 
ENDBRANCH   3   2
BRANCH  26  27
ATOM     27  O   UNL     1      47.222  21.726  19.841  0.00  0.00    -0.511 OA
ATOM     28  H   UNL     1      46.274  21.660  19.664  0.00  0.00    +0.385 HD
ENDBRANCH  26  27
TORSDOF 3
ENDMDL
MODEL 2
REMARK VINA RESULT:      -6.2      1.782      6.395
REMARK  Name = ZINC95485941
REMARK  6 active torsions:
REMARK  status: ('A' for Active; 'I' for Inactive)
REMARK    1  A    between atoms: C1_1  and  C2_2
REMARK    2  A    between atoms: C2_2  and  C3_3
REMARK    3  A    between atoms: C3_3  and  C23_37
REMARK    4  A    between atoms: C10_15  and  O6_34
REMARK    5  A    between atoms: C12_18  and  C21_33
REMARK    6  A    between atoms: C16_26  and  C17_28
REMARK                            x       y       z     vdW  Elec       q    Type
REMARK                         _______ _______ _______ _____ _____    ______ ____
ROOT
ATOM      3  C   UNL     1      51.879  19.360  18.667  0.00  0.00    +0.140 C 
ATOM      4  C   UNL     1      52.569  20.678  19.021  0.00  0.00    +0.043 C 
ATOM      5  C   UNL     1      51.040  18.875  19.840  0.00  0.00    -0.022 C 
ATOM      6  C   UNL     1      51.170  17.332  19.705  0.00  0.00    -0.040 C 
ATOM      7  C   UNL     1      52.653  17.226  19.337  0.00  0.00    +0.211 C 
ATOM      8  C   UNL     1      50.741  16.711  21.024  0.00  0.00    +0.070 C 
ATOM      9  C   UNL     1      49.287  17.170  21.203  0.00  0.00    +0.367 C 
ATOM     10  C   UNL     1      48.728  18.004  20.075  0.00  0.00    +0.020 C 
ATOM     11  C   UNL     1      47.311  18.491  20.351  0.00  0.00    +0.061 C 
ATOM     12  C   UNL     1      46.323  17.637  21.133  0.00  0.00    +0.127 C 
ATOM     13  C   UNL     1      44.852  17.846  20.823  0.00  0.00    +0.488 C 
ATOM     14  O   UNL     1      44.506  18.635  19.799  0.00  0.00    -0.309 OA
ATOM     15  C   UNL     1      45.301  19.713  19.559  0.00  0.00    +0.325 C 
ATOM     21  O   UNL     1      44.003  17.308  21.493  0.00  0.00    -0.423 OA
ATOM     22  O   UNL     1      46.982  18.779  21.708  0.00  0.00    -0.287 OA
ATOM     23  C   UNL     1      46.736  19.329  19.287  0.00  0.00    -0.073 C 
ATOM     24  C   UNL     1      46.747  18.487  18.009  0.00  0.00    +0.061 C 
ATOM     25  C   UNL     1      47.642  20.531  19.042  0.00  0.00    +0.040 C 
ATOM     26  C   UNL     1      49.068  20.048  18.731  0.00  0.00    +0.194 C 
ATOM     29  O   UNL     1      48.635  16.884  22.179  0.00  0.00    -0.424 OA
ATOM     30  C   UNL     1      49.596  19.246  19.906  0.00  0.00    +0.037 C 
ATOM     31  O   UNL     1      52.866  18.332  18.426  0.00  0.00    -0.378 OA
ENDROOT
BRANCH  15  16
ATOM     16  C   UNL     1      45.266  20.700  20.697  0.00  0.00    -0.233 A 
ATOM     17  C   UNL     1      46.176  21.758  20.922  0.00  0.00    -0.041 A 
ATOM     18  C   UNL     1      45.774  22.385  22.042  0.00  0.00    +0.169 A 
ATOM     19  O   UNL     1      44.675  21.767  22.505  0.00  0.00    -0.167 OA
ATOM     20  C   UNL     1      44.360  20.747  21.689  0.00  0.00    +0.194 A 
ENDBRANCH  15  16
BRANCH   3   2
ATOM      1  C   UNL     1      51.803  19.204  16.174  0.00  0.00    -0.002 C 
ATOM      2  C   UNL     1      50.998  19.545  17.430  0.00  0.00    -0.021 C 
ENDBRANCH   3   2
BRANCH  26  27
ATOM     27  O   UNL     1      49.915  21.177  18.506  0.00  0.00    -0.511 OA
ATOM     28  H   UNL     1      49.437  21.989  18.290  0.00  0.00    +0.385 HD
ENDBRANCH  26  27
TORSDOF 3
ENDMDL
MODEL 3
REMARK VINA RESULT:      -6.1      3.523      5.449
REMARK  Name = ZINC95485941
REMARK  6 active torsions:
REMARK  status: ('A' for Active; 'I' for Inactive)
REMARK    1  A    between atoms: C1_1  and  C2_2
REMARK    2  A    between atoms: C2_2  and  C3_3
REMARK    3  A    between atoms: C3_3  and  C23_37
REMARK    4  A    between atoms: C10_15  and  O6_34
REMARK    5  A    between atoms: C12_18  and  C21_33
REMARK    6  A    between atoms: C16_26  and  C17_28
REMARK                            x       y       z     vdW  Elec       q    Type
REMARK                         _______ _______ _______ _____ _____    ______ ____
ROOT
ATOM      3  C   UNL     1      44.269  19.535  19.653  0.00  0.00    +0.140 C 
ATOM      4  C   UNL     1      43.349  19.703  18.443  0.00  0.00    +0.043 C 
ATOM      5  C   UNL     1      44.133  18.132  20.225  0.00  0.00    -0.022 C 
ATOM      6  C   UNL     1      44.349  18.387  21.743  0.00  0.00    -0.040 C 
ATOM      7  C   UNL     1      43.555  19.687  21.904  0.00  0.00    +0.211 C 
ATOM      8  C   UNL     1      43.839  17.170  22.497  0.00  0.00    +0.070 C 
ATOM      9  C   UNL     1      44.691  16.009  21.964  0.00  0.00    +0.367 C 
ATOM     10  C   UNL     1      45.747  16.393  20.955  0.00  0.00    +0.020 C 
ATOM     11  C   UNL     1      46.503  15.188  20.409  0.00  0.00    +0.061 C 
ATOM     12  C   UNL     1      46.793  13.978  21.286  0.00  0.00    +0.127 C 
ATOM     13  C   UNL     1      48.027  13.167  20.935  0.00  0.00    +0.488 C 
ATOM     14  O   UNL     1      48.866  13.626  19.999  0.00  0.00    -0.309 OA
ATOM     15  C   UNL     1      48.311  14.304  18.957  0.00  0.00    +0.325 C 
ATOM     21  O   UNL     1      48.250  12.120  21.495  0.00  0.00    -0.423 OA
ATOM     22  O   UNL     1      45.768  13.973  20.276  0.00  0.00    -0.287 OA
ATOM     23  C   UNL     1      47.525  15.514  19.402  0.00  0.00    -0.073 C 
ATOM     24  C   UNL     1      48.511  16.475  20.072  0.00  0.00    +0.061 C 
ATOM     25  C   UNL     1      46.877  16.267  18.246  0.00  0.00    +0.040 C 
ATOM     26  C   UNL     1      46.139  17.503  18.784  0.00  0.00    +0.194 C 
ATOM     29  O   UNL     1      44.529  14.869  22.326  0.00  0.00    -0.424 OA
ATOM     30  C   UNL     1      45.068  17.064  19.765  0.00  0.00    +0.037 C 
ATOM     31  O   UNL     1      43.872  20.440  20.708  0.00  0.00    -0.378 OA
ENDROOT
BRANCH  15  16
ATOM     16  C   UNL     1      47.419  13.420  18.125  0.00  0.00    -0.233 A 
ATOM     17  C   UNL     1      47.341  12.010  18.180  0.00  0.00    -0.041 A 
ATOM     18  C   UNL     1      46.421  11.634  17.274  0.00  0.00    +0.169 A 
ATOM     19  O   UNL     1      45.940  12.736  16.675  0.00  0.00    -0.167 OA
ATOM     20  C   UNL     1      46.538  13.823  17.191  0.00  0.00    +0.194 A 
ENDBRANCH  15  16
BRANCH   3   2
ATOM      1  C   UNL     1      45.917  21.299  19.007  0.00  0.00    -0.002 C 
ATOM      2  C   UNL     1      45.721  19.801  19.250  0.00  0.00    -0.021 C 
ENDBRANCH   3   2
BRANCH  26  27
ATOM     27  O   UNL     1      45.530  18.204  17.698  0.00  0.00    -0.511 OA
ATOM     28  H   UNL     1      44.567  18.266  17.760  0.00  0.00    +0.385 HD
ENDBRANCH  26  27
TORSDOF 3
ENDMDL
MODEL 4
REMARK VINA RESULT:      -6.0      3.154      6.474
REMARK  Name = ZINC95485941
REMARK  6 active torsions:
REMARK  status: ('A' for Active; 'I' for Inactive)
REMARK    1  A    between atoms: C1_1  and  C2_2
REMARK    2  A    between atoms: C2_2  and  C3_3
REMARK    3  A    between atoms: C3_3  and  C23_37
REMARK    4  A    between atoms: C10_15  and  O6_34
REMARK    5  A    between atoms: C12_18  and  C21_33
REMARK    6  A    between atoms: C16_26  and  C17_28
REMARK                            x       y       z     vdW  Elec       q    Type
REMARK                         _______ _______ _______ _____ _____    ______ ____
ROOT
ATOM      3  C   UNL     1      51.014  18.699  18.026  0.00  0.00    +0.140 C 
ATOM      4  C   UNL     1      51.844  18.965  16.769  0.00  0.00    +0.043 C 
ATOM      5  C   UNL     1      49.595  18.305  17.644  0.00  0.00    -0.022 C 
ATOM      6  C   UNL     1      48.772  18.914  18.814  0.00  0.00    -0.040 C 
ATOM      7  C   UNL     1      49.500  20.250  18.978  0.00  0.00    +0.211 C 
ATOM      8  C   UNL     1      47.316  18.970  18.380  0.00  0.00    +0.070 C 
ATOM      9  C   UNL     1      46.949  17.507  18.094  0.00  0.00    +0.367 C 
ATOM     10  C   UNL     1      48.045  16.502  18.357  0.00  0.00    +0.020 C 
ATOM     11  C   UNL     1      47.642  15.081  17.981  0.00  0.00    +0.061 C 
ATOM     12  C   UNL     1      46.208  14.599  18.149  0.00  0.00    +0.127 C 
ATOM     13  C   UNL     1      46.016  13.112  18.384  0.00  0.00    +0.488 C 
ATOM     14  O   UNL     1      47.090  12.338  18.581  0.00  0.00    -0.309 OA
ATOM     15  C   UNL     1      48.219  12.669  17.897  0.00  0.00    +0.325 C 
ATOM     21  O   UNL     1      44.907  12.632  18.392  0.00  0.00    -0.423 OA
ATOM     22  O   UNL     1      46.764  14.936  16.866  0.00  0.00    -0.287 OA
ATOM     23  C   UNL     1      48.691  14.073  18.196  0.00  0.00    -0.073 C 
ATOM     24  C   UNL     1      49.051  14.124  19.682  0.00  0.00    +0.061 C 
ATOM     25  C   UNL     1      49.940  14.464  17.416  0.00  0.00    +0.040 C 
ATOM     26  C   UNL     1      50.373  15.884  17.813  0.00  0.00    +0.194 C 
ATOM     29  O   UNL     1      45.859  17.182  17.689  0.00  0.00    -0.424 OA
ATOM     30  C   UNL     1      49.254  16.859  17.499  0.00  0.00    +0.037 C 
ATOM     31  O   UNL     1      50.898  19.909  18.809  0.00  0.00    -0.378 OA
ENDROOT
BRANCH  15  16
ATOM     16  C   UNL     1      48.037  12.521  16.409  0.00  0.00    -0.233 A 
ATOM     17  C   UNL     1      48.847  13.090  15.400  0.00  0.00    -0.041 A 
ATOM     18  C   UNL     1      48.330  12.704  14.221  0.00  0.00    +0.169 A 
ATOM     19  O   UNL     1      47.254  11.936  14.459  0.00  0.00    -0.167 OA
ATOM     20  C   UNL     1      47.075  11.818  15.785  0.00  0.00    +0.194 A 
ENDBRANCH  15  16
BRANCH   3   2
ATOM      1  C   UNL     1      52.262  18.196  20.131  0.00  0.00    -0.002 C 
ATOM      2  C   UNL     1      51.662  17.592  18.860  0.00  0.00    -0.021 C 
ENDBRANCH   3   2
BRANCH  26  27
ATOM     27  O   UNL     1      51.543  16.249  17.077  0.00  0.00    -0.511 OA
ATOM     28  H   UNL     1      51.356  16.691  16.238  0.00  0.00    +0.385 HD
ENDBRANCH  26  27
TORSDOF 3
ENDMDL
MODEL 5
REMARK VINA RESULT:      -5.9      3.359      6.614
REMARK  Name = ZINC95485941
REMARK  6 active torsions:
REMARK  status: ('A' for Active; 'I' for Inactive)
REMARK    1  A    between atoms: C1_1  and  C2_2
REMARK    2  A    between atoms: C2_2  and  C3_3
REMARK    3  A    between atoms: C3_3  and  C23_37
REMARK    4  A    between atoms: C10_15  and  O6_34
REMARK    5  A    between atoms: C12_18  and  C21_33
REMARK    6  A    between atoms: C16_26  and  C17_28
REMARK                            x       y       z     vdW  Elec       q    Type
REMARK                         _______ _______ _______ _____ _____    ______ ____
ROOT
ATOM      3  C   UNL     1      48.244  15.209  21.597  0.00  0.00    +0.140 C 
ATOM      4  C   UNL     1      49.389  15.659  22.505  0.00  0.00    +0.043 C 
ATOM      5  C   UNL     1      46.938  15.851  22.042  0.00  0.00    -0.022 C 
ATOM      6  C   UNL     1      45.907  14.739  21.700  0.00  0.00    -0.040 C 
ATOM      7  C   UNL     1      46.695  13.505  22.147  0.00  0.00    +0.211 C 
ATOM      8  C   UNL     1      44.623  15.048  22.453  0.00  0.00    +0.070 C 
ATOM      9  C   UNL     1      44.200  16.429  21.933  0.00  0.00    +0.367 C 
ATOM     10  C   UNL     1      45.091  17.017  20.864  0.00  0.00    +0.020 C 
ATOM     11  C   UNL     1      44.661  18.418  20.448  0.00  0.00    +0.061 C 
ATOM     12  C   UNL     1      43.191  18.815  20.419  0.00  0.00    +0.127 C 
ATOM     13  C   UNL     1      42.803  19.903  19.435  0.00  0.00    +0.488 C 
ATOM     14  O   UNL     1      43.710  20.343  18.555  0.00  0.00    -0.309 OA
ATOM     15  C   UNL     1      45.003  20.388  18.977  0.00  0.00    +0.325 C 
ATOM     21  O   UNL     1      41.688  20.368  19.446  0.00  0.00    -0.423 OA
ATOM     22  O   UNL     1      44.087  19.243  21.461  0.00  0.00    -0.287 OA
ATOM     23  C   UNL     1      45.517  19.040  19.425  0.00  0.00    -0.073 C 
ATOM     24  C   UNL     1      45.489  18.116  18.207  0.00  0.00    +0.061 C 
ATOM     25  C   UNL     1      46.956  19.084  19.926  0.00  0.00    +0.040 C 
ATOM     26  C   UNL     1      47.409  17.668  20.317  0.00  0.00    +0.194 C 
ATOM     29  O   UNL     1      43.224  17.004  22.349  0.00  0.00    -0.424 OA
ATOM     30  C   UNL     1      46.507  17.135  21.415  0.00  0.00    +0.037 C 
ATOM     31  O   UNL     1      48.050  13.781  21.713  0.00  0.00    -0.378 OA
ENDROOT
BRANCH  15  16
ATOM     16  C   UNL     1      45.194  21.380  20.095  0.00  0.00    -0.233 A 
ATOM     17  C   UNL     1      46.306  21.468  20.963  0.00  0.00    -0.041 A 
ATOM     18  C   UNL     1      46.064  22.489  21.804  0.00  0.00    +0.169 A 
ATOM     19  O   UNL     1      44.871  23.022  21.494  0.00  0.00    -0.167 OA
ATOM     20  C   UNL     1      44.341  22.356  20.455  0.00  0.00    +0.194 A 
ENDBRANCH  15  16
BRANCH   3   2
ATOM      1  C   UNL     1      49.034  14.344  19.390  0.00  0.00    -0.002 C 
ATOM      2  C   UNL     1      48.547  15.582  20.144  0.00  0.00    -0.021 C 
ENDBRANCH   3   2
BRANCH  26  27
ATOM     27  O   UNL     1      48.757  17.712  20.789  0.00  0.00    -0.511 OA
ATOM     28  H   UNL     1      49.211  16.858  20.764  0.00  0.00    +0.385 HD
ENDBRANCH  26  27
TORSDOF 3
ENDMDL
MODEL 6
REMARK VINA RESULT:      -5.8      2.324      4.869
REMARK  Name = ZINC95485941
REMARK  6 active torsions:
REMARK  status: ('A' for Active; 'I' for Inactive)
REMARK    1  A    between atoms: C1_1  and  C2_2
REMARK    2  A    between atoms: C2_2  and  C3_3
REMARK    3  A    between atoms: C3_3  and  C23_37
REMARK    4  A    between atoms: C10_15  and  O6_34
REMARK    5  A    between atoms: C12_18  and  C21_33
REMARK    6  A    between atoms: C16_26  and  C17_28
REMARK                            x       y       z     vdW  Elec       q    Type
REMARK                         _______ _______ _______ _____ _____    ______ ____
ROOT
ATOM      3  C   UNL     1      44.508  20.010  20.528  0.00  0.00    +0.140 C 
ATOM      4  C   UNL     1      43.869  19.652  21.871  0.00  0.00    +0.043 C 
ATOM      5  C   UNL     1      45.984  19.641  20.534  0.00  0.00    -0.022 C 
ATOM      6  C   UNL     1      46.592  20.755  19.637  0.00  0.00    -0.040 C 
ATOM      7  C   UNL     1      45.792  21.960  20.139  0.00  0.00    +0.211 C 
ATOM      8  C   UNL     1      48.093  20.776  19.875  0.00  0.00    +0.070 C 
ATOM      9  C   UNL     1      48.561  19.371  19.473  0.00  0.00    +0.367 C 
ATOM     10  C   UNL     1      47.480  18.455  18.949  0.00  0.00    +0.020 C 
ATOM     11  C   UNL     1      47.996  17.054  18.642  0.00  0.00    +0.061 C 
ATOM     12  C   UNL     1      49.406  16.832  18.114  0.00  0.00    +0.127 C 
ATOM     13  C   UNL     1      49.622  15.599  17.255  0.00  0.00    +0.488 C 
ATOM     14  O   UNL     1      48.564  14.869  16.884  0.00  0.00    -0.309 OA
ATOM     15  C   UNL     1      47.539  14.774  17.775  0.00  0.00    +0.325 C 
ATOM     21  O   UNL     1      50.735  15.280  16.912  0.00  0.00    -0.423 OA
ATOM     22  O   UNL     1      49.039  16.555  19.477  0.00  0.00    -0.287 OA
ATOM     23  C   UNL     1      46.969  16.121  18.152  0.00  0.00    -0.073 C 
ATOM     24  C   UNL     1      46.384  16.738  16.880  0.00  0.00    +0.061 C 
ATOM     25  C   UNL     1      45.839  16.029  19.170  0.00  0.00    +0.040 C 
ATOM     26  C   UNL     1      45.290  17.435  19.461  0.00  0.00    +0.194 C 
ATOM     29  O   UNL     1      49.713  19.021  19.569  0.00  0.00    -0.424 OA
ATOM     30  C   UNL     1      46.403  18.305  20.017  0.00  0.00    +0.037 C 
ATOM     31  O   UNL     1      44.452  21.439  20.317  0.00  0.00    -0.378 OA
ENDROOT
BRANCH  15  16
ATOM     16  C   UNL     1      47.953  14.049  19.030  0.00  0.00    -0.233 A 
ATOM     17  C   UNL     1      47.269  14.049  20.267  0.00  0.00    -0.041 A 
ATOM     18  C   UNL     1      47.982  13.278  21.107  0.00  0.00    +0.169 A 
ATOM     19  O   UNL     1      49.056  12.813  20.448  0.00  0.00    -0.167 OA
ATOM     20  C   UNL     1      49.041  13.274  19.186  0.00  0.00    +0.194 A 
ENDBRANCH  15  16
BRANCH   3   2
ATOM      1  C   UNL     1      42.702  20.190  18.811  0.00  0.00    -0.002 C 
ATOM      2  C   UNL     1      43.787  19.281  19.392  0.00  0.00    -0.021 C 
ENDBRANCH   3   2
BRANCH  26  27
ATOM     27  O   UNL     1      44.233  17.346  20.418  0.00  0.00    -0.511 OA
ATOM     28  H   UNL     1      43.885  16.452  20.536  0.00  0.00    +0.385 HD
ENDBRANCH  26  27
TORSDOF 3
ENDMDL
MODEL 7
REMARK VINA RESULT:      -5.8      2.092      6.728
REMARK  Name = ZINC95485941
REMARK  6 active torsions:
REMARK  status: ('A' for Active; 'I' for Inactive)
REMARK    1  A    between atoms: C1_1  and  C2_2
REMARK    2  A    between atoms: C2_2  and  C3_3
REMARK    3  A    between atoms: C3_3  and  C23_37
REMARK    4  A    between atoms: C10_15  and  O6_34
REMARK    5  A    between atoms: C12_18  and  C21_33
REMARK    6  A    between atoms: C16_26  and  C17_28
REMARK                            x       y       z     vdW  Elec       q    Type
REMARK                         _______ _______ _______ _____ _____    ______ ____
ROOT
ATOM      3  C   UNL     1      50.791  17.311  20.220  0.00  0.00    +0.140 C 
ATOM      4  C   UNL     1      51.055  16.152  21.183  0.00  0.00    +0.043 C 
ATOM      5  C   UNL     1      49.504  17.068  19.447  0.00  0.00    -0.022 C 
ATOM      6  C   UNL     1      49.831  17.722  18.074  0.00  0.00    -0.040 C 
ATOM      7  C   UNL     1      51.281  17.260  17.905  0.00  0.00    +0.211 C 
ATOM      8  C   UNL     1      48.820  17.208  17.062  0.00  0.00    +0.070 C 
ATOM      9  C   UNL     1      47.462  17.654  17.622  0.00  0.00    +0.367 C 
ATOM     10  C   UNL     1      47.522  18.458  18.899  0.00  0.00    +0.020 C 
ATOM     11  C   UNL     1      46.140  18.801  19.442  0.00  0.00    +0.061 C 
ATOM     12  C   UNL     1      44.972  19.077  18.505  0.00  0.00    +0.127 C 
ATOM     13  C   UNL     1      43.887  19.999  19.029  0.00  0.00    +0.488 C 
ATOM     14  O   UNL     1      44.072  20.631  20.194  0.00  0.00    -0.309 OA
ATOM     15  C   UNL     1      44.766  19.959  21.153  0.00  0.00    +0.325 C 
ATOM     21  O   UNL     1      42.866  20.159  18.403  0.00  0.00    -0.423 OA
ATOM     22  O   UNL     1      45.108  17.840  19.227  0.00  0.00    -0.287 OA
ATOM     23  C   UNL     1      46.151  19.563  20.700  0.00  0.00    -0.073 C 
ATOM     24  C   UNL     1      46.926  20.854  20.426  0.00  0.00    +0.061 C 
ATOM     25  C   UNL     1      46.928  18.786  21.757  0.00  0.00    +0.040 C 
ATOM     26  C   UNL     1      48.336  18.465  21.230  0.00  0.00    +0.194 C 
ATOM     29  O   UNL     1      46.419  17.380  17.079  0.00  0.00    -0.424 OA
ATOM     30  C   UNL     1      48.223  17.628  19.969  0.00  0.00    +0.037 C 
ATOM     31  O   UNL     1      51.845  17.386  19.233  0.00  0.00    -0.378 OA
ENDROOT
BRANCH  15  16
ATOM     16  C   UNL     1      44.032  18.727  21.617  0.00  0.00    -0.233 A 
ATOM     17  C   UNL     1      44.595  17.609  22.273  0.00  0.00    -0.041 A 
ATOM     18  C   UNL     1      43.589  16.747  22.505  0.00  0.00    +0.169 A 
ATOM     19  O   UNL     1      42.453  17.280  22.027  0.00  0.00    -0.167 OA
ATOM     20  C   UNL     1      42.715  18.484  21.492  0.00  0.00    +0.194 A 
ENDBRANCH  15  16
BRANCH   3   2
ATOM      1  C   UNL     1      52.039  19.364  20.908  0.00  0.00    -0.002 C 
ATOM      2  C   UNL     1      50.700  18.628  20.994  0.00  0.00    -0.021 C 
ENDBRANCH   3   2
BRANCH  26  27
ATOM     27  O   UNL     1      49.060  17.734  22.222  0.00  0.00    -0.511 OA
ATOM     28  H   UNL     1      48.508  17.383  22.933  0.00  0.00    +0.385 HD
ENDBRANCH  26  27
TORSDOF 3
ENDMDL
MODEL 8
REMARK VINA RESULT:      -5.7      2.347      6.740
REMARK  Name = ZINC95485941
REMARK  6 active torsions:
REMARK  status: ('A' for Active; 'I' for Inactive)
REMARK    1  A    between atoms: C1_1  and  C2_2
REMARK    2  A    between atoms: C2_2  and  C3_3
REMARK    3  A    between atoms: C3_3  and  C23_37
REMARK    4  A    between atoms: C10_15  and  O6_34
REMARK    5  A    between atoms: C12_18  and  C21_33
REMARK    6  A    between atoms: C16_26  and  C17_28
REMARK                            x       y       z     vdW  Elec       q    Type
REMARK                         _______ _______ _______ _____ _____    ______ ____
ROOT
ATOM      3  C   UNL     1      47.750  15.214  18.648  0.00  0.00    +0.140 C 
ATOM      4  C   UNL     1      47.016  14.513  17.504  0.00  0.00    +0.043 C 
ATOM      5  C   UNL     1      47.759  16.718  18.422  0.00  0.00    -0.022 C 
ATOM      6  C   UNL     1      49.128  17.122  19.038  0.00  0.00    -0.040 C 
ATOM      7  C   UNL     1      49.993  15.962  18.536  0.00  0.00    +0.211 C 
ATOM      8  C   UNL     1      49.476  18.512  18.529  0.00  0.00    +0.070 C 
ATOM      9  C   UNL     1      48.321  19.395  19.021  0.00  0.00    +0.367 C 
ATOM     10  C   UNL     1      47.275  18.689  19.850  0.00  0.00    +0.020 C 
ATOM     11  C   UNL     1      46.120  19.604  20.240  0.00  0.00    +0.061 C 
ATOM     12  C   UNL     1      46.347  21.081  20.527  0.00  0.00    +0.127 C 
ATOM     13  C   UNL     1      45.376  21.743  21.487  0.00  0.00    +0.488 C 
ATOM     14  O   UNL     1      44.484  20.987  22.138  0.00  0.00    -0.309 OA
ATOM     15  C   UNL     1      43.986  19.911  21.470  0.00  0.00    +0.325 C 
ATOM     21  O   UNL     1      45.405  22.938  21.660  0.00  0.00    -0.423 OA
ATOM     22  O   UNL     1      45.754  20.614  19.302  0.00  0.00    -0.287 OA
ATOM     23  C   UNL     1      45.064  18.949  21.028  0.00  0.00    -0.073 C 
ATOM     24  C   UNL     1      45.731  18.405  22.293  0.00  0.00    +0.061 C 
ATOM     25  C   UNL     1      44.519  17.754  20.255  0.00  0.00    +0.040 C 
ATOM     26  C   UNL     1      45.675  16.809  19.886  0.00  0.00    +0.194 C 
ATOM     29  O   UNL     1      48.254  20.573  18.763  0.00  0.00    -0.424 OA
ATOM     30  C   UNL     1      46.680  17.553  19.026  0.00  0.00    +0.037 C 
ATOM     31  O   UNL     1      49.135  14.803  18.675  0.00  0.00    -0.378 OA
ENDROOT
BRANCH  15  16
ATOM     16  C   UNL     1      43.177  20.324  20.267  0.00  0.00    -0.233 A 
ATOM     17  C   UNL     1      42.525  19.464  19.355  0.00  0.00    -0.041 A 
ATOM     18  C   UNL     1      41.924  20.247  18.441  0.00  0.00    +0.169 A 
ATOM     19  O   UNL     1      42.176  21.530  18.751  0.00  0.00    -0.167 OA
ATOM     20  C   UNL     1      42.931  21.582  19.860  0.00  0.00    +0.194 A 
ENDBRANCH  15  16
BRANCH   3   2
ATOM      1  C   UNL     1      47.785  13.696  20.633  0.00  0.00    -0.002 C 
ATOM      2  C   UNL     1      47.077  14.886  19.983  0.00  0.00    -0.021 C 
ENDBRANCH   3   2
BRANCH  26  27
ATOM     27  O   UNL     1      45.162  15.691  19.158  0.00  0.00    -0.511 OA
ATOM     28  H   UNL     1      45.275  14.843  19.609  0.00  0.00    +0.385 HD
ENDBRANCH  26  27
TORSDOF 3
ENDMDL
MODEL 9
REMARK VINA RESULT:      -5.7      2.739      5.083
REMARK  Name = ZINC95485941
REMARK  6 active torsions:
REMARK  status: ('A' for Active; 'I' for Inactive)
REMARK    1  A    between atoms: C1_1  and  C2_2
REMARK    2  A    between atoms: C2_2  and  C3_3
REMARK    3  A    between atoms: C3_3  and  C23_37
REMARK    4  A    between atoms: C10_15  and  O6_34
REMARK    5  A    between atoms: C12_18  and  C21_33
REMARK    6  A    between atoms: C16_26  and  C17_28
REMARK                            x       y       z     vdW  Elec       q    Type
REMARK                         _______ _______ _______ _____ _____    ______ ____
ROOT
ATOM      3  C   UNL     1      47.743  13.303  17.779  0.00  0.00    +0.140 C 
ATOM      4  C   UNL     1      47.776  12.893  16.305  0.00  0.00    +0.043 C 
ATOM      5  C   UNL     1      49.115  13.790  18.219  0.00  0.00    -0.022 C 
ATOM      6  C   UNL     1      49.155  13.324  19.702  0.00  0.00    -0.040 C 
ATOM      7  C   UNL     1      48.507  11.944  19.559  0.00  0.00    +0.211 C 
ATOM      8  C   UNL     1      50.603  13.363  20.163  0.00  0.00    +0.070 C 
ATOM      9  C   UNL     1      51.017  14.831  19.992  0.00  0.00    +0.367 C 
ATOM     10  C   UNL     1      49.930  15.755  19.497  0.00  0.00    +0.020 C 
ATOM     11  C   UNL     1      50.426  17.179  19.275  0.00  0.00    +0.061 C 
ATOM     12  C   UNL     1      51.498  17.788  20.169  0.00  0.00    +0.127 C 
ATOM     13  C   UNL     1      51.472  19.297  20.324  0.00  0.00    +0.488 C 
ATOM     14  O   UNL     1      50.449  19.990  19.811  0.00  0.00    -0.309 OA
ATOM     15  C   UNL     1      49.914  19.525  18.649  0.00  0.00    +0.325 C 
ATOM     21  O   UNL     1      52.366  19.867  20.904  0.00  0.00    -0.423 OA
ATOM     22  O   UNL     1      51.774  17.329  18.833  0.00  0.00    -0.287 OA
ATOM     23  C   UNL     1      49.405  18.109  18.768  0.00  0.00    -0.073 C 
ATOM     24  C   UNL     1      48.271  18.119  19.795  0.00  0.00    +0.061 C 
ATOM     25  C   UNL     1      48.828  17.568  17.464  0.00  0.00    +0.040 C 
ATOM     26  C   UNL     1      48.295  16.144  17.688  0.00  0.00    +0.194 C 
ATOM     29  O   UNL     1      52.133  15.220  20.235  0.00  0.00    -0.424 OA
ATOM     30  C   UNL     1      49.429  15.247  18.150  0.00  0.00    +0.037 C 
ATOM     31  O   UNL     1      47.438  12.157  18.606  0.00  0.00    -0.378 OA
ENDROOT
BRANCH  15  16
ATOM     16  C   UNL     1      50.900  19.597  17.511  0.00  0.00    -0.233 A 
ATOM     17  C   UNL     1      50.966  18.727  16.399  0.00  0.00    -0.041 A 
ATOM     18  C   UNL     1      51.987  19.151  15.633  0.00  0.00    +0.169 A 
ATOM     19  O   UNL     1      52.539  20.227  16.218  0.00  0.00    -0.167 OA
ATOM     20  C   UNL     1      51.880  20.504  17.355  0.00  0.00    +0.194 A 
ENDBRANCH  15  16
BRANCH   3   2
ATOM      1  C   UNL     1      45.554  13.856  18.851  0.00  0.00    -0.002 C 
ATOM      2  C   UNL     1      46.700  14.402  17.995  0.00  0.00    -0.021 C 
ENDBRANCH   3   2
BRANCH  26  27
ATOM     27  O   UNL     1      47.758  15.639  16.464  0.00  0.00    -0.511 OA
ATOM     28  H   UNL     1      48.012  14.726  16.270  0.00  0.00    +0.385 HD
ENDBRANCH  26  27
TORSDOF 3
ENDMDL
