MODEL 1
REMARK VINA RESULT:      -5.9      0.000      0.000
REMARK  Name = ZINC95485970
REMARK  12 active torsions:
REMARK  status: ('A' for Active; 'I' for Inactive)
REMARK    1  A    between atoms: C1_1  and  C2_2
REMARK    2  A    between atoms: C2_2  and  C24_29
REMARK    3  A    between atoms: C3_3  and  C4_4
REMARK    4  A    between atoms: C4_4  and  C5_5
REMARK    5  A    between atoms: C5_5  and  C6_6
REMARK    6  A    between atoms: C7_7  and  O5_28
REMARK    7  A    between atoms: C14_15  and  O4_27
REMARK    8  A    between atoms: C17_19  and  C19_22
REMARK    9  A    between atoms: C18_20  and  O3_21
REMARK   10  A    between atoms: C19_22  and  C20_23
REMARK   11  A    between atoms: C19_22  and  C21_24
REMARK   12  A    between atoms: C19_22  and  C22_25
REMARK                            x       y       z     vdW  Elec       q    Type
REMARK                         _______ _______ _______ _____ _____    ______ ____
ROOT
ATOM      7  C   UNL     1      46.239  17.371  21.922  0.00  0.00    -0.164 A 
ATOM      8  C   UNL     1      44.865  17.405  21.772  0.00  0.00    +0.216 A 
ATOM     11  C   UNL     1      44.254  18.563  21.275  0.00  0.00    -0.264 A 
ATOM     12  C   UNL     1      42.796  18.628  21.077  0.00  0.00    +0.443 A 
ATOM     13  C   UNL     1      42.302  19.774  20.283  0.00  0.00    -0.210 A 
ATOM     14  C   UNL     1      40.994  19.806  19.802  0.00  0.00    +0.108 A 
ATOM     15  C   UNL     1      40.565  20.885  19.061  0.00  0.00    +0.011 A 
ATOM     16  C   UNL     1      41.429  21.935  18.793  0.00  0.00    +0.065 A 
ATOM     17  C   UNL     1      42.728  21.918  19.266  0.00  0.00    +0.086 A 
ATOM     20  C   UNL     1      43.182  20.834  20.021  0.00  0.00    +0.125 A 
ATOM     21  O   UNL     1      44.447  20.821  20.490  0.00  0.00    -0.206 OA
ATOM     22  O   UNL     1      42.043  17.790  21.539  0.00  0.00    -0.431 OA
ATOM     23  C   UNL     1      45.026  19.694  20.947  0.00  0.00    +0.189 A 
ATOM     24  C   UNL     1      46.403  19.636  21.103  0.00  0.00    -0.132 A 
ATOM     30  C   UNL     1      47.003  18.484  21.592  0.00  0.00    +0.196 A 
ENDROOT
BRANCH  24  25
ATOM     25  C   UNL     1      47.250  20.830  20.748  0.00  0.00    +0.014 C 
ATOM     28  C   UNL     1      48.486  20.866  21.649  0.00  0.00    +0.051 C 
ATOM     29  C   UNL     1      46.436  22.110  20.947  0.00  0.00    +0.044 C 
BRANCH  25  26
ATOM     26  C   UNL     1      47.682  20.730  19.308  0.00  0.00    +0.012 C 
ATOM     27  C   UNL     1      48.956  20.679  19.008  0.00  0.00    -0.033 C 
ENDBRANCH  25  26
ENDBRANCH  24  25
BRANCH   8   9
ATOM      9  O   UNL     1      44.114  16.324  22.102  0.00  0.00    -0.473 OA
ATOM     10  H   UNL     1      44.036  16.176  23.055  0.00  0.00    +0.402 HD
ENDBRANCH   8   9
BRANCH  17  18
ATOM     18  O   UNL     1      43.564  22.954  18.994  0.00  0.00    -0.480 OA
ATOM     19  H   UNL     1      44.485  22.690  18.855  0.00  0.00    +0.393 HD
ENDBRANCH  17  18
BRANCH  30  31
ATOM     31  O   UNL     1      48.350  18.443  21.743  0.00  0.00    -0.470 OA
ATOM     32  H   UNL     1      48.698  17.562  21.938  0.00  0.00    +0.398 HD
ENDBRANCH  30  31
BRANCH   7   6
ATOM      6  C   UNL     1      46.909  16.128  22.451  0.00  0.00    +0.098 C 
BRANCH   6   5
ATOM      5  C   UNL     1      47.531  15.350  21.290  0.00  0.00    +0.055 C 
BRANCH   5   4
ATOM      1  C   UNL     1      46.152  15.416  18.830  0.00  0.00    +0.073 C 
ATOM      2  C   UNL     1      45.936  14.272  19.787  0.00  0.00    -0.128 C 
ATOM      3  C   UNL     1      44.935  13.195  19.460  0.00  0.00    +0.072 C 
ATOM      4  C   UNL     1      46.620  14.213  20.903  0.00  0.00    -0.061 C 
ENDBRANCH   5   4
ENDBRANCH   6   5
ENDBRANCH   7   6
TORSDOF 8
ENDMDL
MODEL 2
REMARK VINA RESULT:      -5.9      2.305      6.955
REMARK  Name = ZINC95485970
REMARK  12 active torsions:
REMARK  status: ('A' for Active; 'I' for Inactive)
REMARK    1  A    between atoms: C1_1  and  C2_2
REMARK    2  A    between atoms: C2_2  and  C24_29
REMARK    3  A    between atoms: C3_3  and  C4_4
REMARK    4  A    between atoms: C4_4  and  C5_5
REMARK    5  A    between atoms: C5_5  and  C6_6
REMARK    6  A    between atoms: C7_7  and  O5_28
REMARK    7  A    between atoms: C14_15  and  O4_27
REMARK    8  A    between atoms: C17_19  and  C19_22
REMARK    9  A    between atoms: C18_20  and  O3_21
REMARK   10  A    between atoms: C19_22  and  C20_23
REMARK   11  A    between atoms: C19_22  and  C21_24
REMARK   12  A    between atoms: C19_22  and  C22_25
REMARK                            x       y       z     vdW  Elec       q    Type
REMARK                         _______ _______ _______ _____ _____    ______ ____
ROOT
ATOM      7  C   UNL     1      45.483  18.993  20.358  0.00  0.00    -0.164 A 
ATOM      8  C   UNL     1      46.551  19.870  20.390  0.00  0.00    +0.216 A 
ATOM     11  C   UNL     1      47.741  19.534  19.732  0.00  0.00    -0.264 A 
ATOM     12  C   UNL     1      48.891  20.454  19.722  0.00  0.00    +0.443 A 
ATOM     13  C   UNL     1      49.970  20.131  18.763  0.00  0.00    -0.210 A 
ATOM     14  C   UNL     1      50.971  21.054  18.468  0.00  0.00    +0.108 A 
ATOM     15  C   UNL     1      51.960  20.725  17.566  0.00  0.00    +0.011 A 
ATOM     16  C   UNL     1      51.960  19.481  16.955  0.00  0.00    +0.065 A 
ATOM     17  C   UNL     1      50.974  18.554  17.240  0.00  0.00    +0.086 A 
ATOM     20  C   UNL     1      49.964  18.868  18.152  0.00  0.00    +0.125 A 
ATOM     21  O   UNL     1      49.007  17.961  18.438  0.00  0.00    -0.206 OA
ATOM     22  O   UNL     1      48.950  21.423  20.457  0.00  0.00    -0.431 OA
ATOM     23  C   UNL     1      47.860  18.305  19.055  0.00  0.00    +0.189 A 
ATOM     24  C   UNL     1      46.775  17.441  19.034  0.00  0.00    -0.132 A 
ATOM     30  C   UNL     1      45.598  17.782  19.685  0.00  0.00    +0.196 A 
ENDROOT
BRANCH  24  25
ATOM     25  C   UNL     1      46.877  16.125  18.308  0.00  0.00    +0.014 C 
ATOM     28  C   UNL     1      48.289  15.560  18.472  0.00  0.00    +0.051 C 
ATOM     29  C   UNL     1      46.583  16.339  16.822  0.00  0.00    +0.044 C 
BRANCH  25  26
ATOM     26  C   UNL     1      45.879  15.155  18.883  0.00  0.00    +0.012 C 
ATOM     27  C   UNL     1      45.865  13.910  18.475  0.00  0.00    -0.033 C 
ENDBRANCH  25  26
ENDBRANCH  24  25
BRANCH   8   9
ATOM      9  O   UNL     1      46.448  21.050  21.053  0.00  0.00    -0.473 OA
ATOM     10  H   UNL     1      45.539  21.368  21.149  0.00  0.00    +0.402 HD
ENDBRANCH   8   9
BRANCH  17  18
ATOM     18  O   UNL     1      50.986  17.339  16.631  0.00  0.00    -0.480 OA
ATOM     19  H   UNL     1      50.170  16.833  16.749  0.00  0.00    +0.393 HD
ENDBRANCH  17  18
BRANCH  30  31
ATOM     31  O   UNL     1      44.546  16.926  19.659  0.00  0.00    -0.470 OA
ATOM     32  H   UNL     1      43.690  17.358  19.535  0.00  0.00    +0.398 HD
ENDBRANCH  30  31
BRANCH   7   6
ATOM      6  C   UNL     1      44.196  19.346  21.059  0.00  0.00    +0.098 C 
BRANCH   6   5
ATOM      5  C   UNL     1      43.451  20.410  20.251  0.00  0.00    +0.055 C 
BRANCH   5   4
ATOM      1  C   UNL     1      41.558  21.961  18.850  0.00  0.00    +0.073 C 
ATOM      2  C   UNL     1      41.536  20.458  18.738  0.00  0.00    -0.128 C 
ATOM      3  C   UNL     1      40.462  19.780  17.928  0.00  0.00    +0.072 C 
ATOM      4  C   UNL     1      42.451  19.742  19.342  0.00  0.00    -0.061 C 
ENDBRANCH   5   4
ENDBRANCH   6   5
ENDBRANCH   7   6
TORSDOF 8
ENDMDL
MODEL 3
REMARK VINA RESULT:      -5.7      3.313      7.438
REMARK  Name = ZINC95485970
REMARK  12 active torsions:
REMARK  status: ('A' for Active; 'I' for Inactive)
REMARK    1  A    between atoms: C1_1  and  C2_2
REMARK    2  A    between atoms: C2_2  and  C24_29
REMARK    3  A    between atoms: C3_3  and  C4_4
REMARK    4  A    between atoms: C4_4  and  C5_5
REMARK    5  A    between atoms: C5_5  and  C6_6
REMARK    6  A    between atoms: C7_7  and  O5_28
REMARK    7  A    between atoms: C14_15  and  O4_27
REMARK    8  A    between atoms: C17_19  and  C19_22
REMARK    9  A    between atoms: C18_20  and  O3_21
REMARK   10  A    between atoms: C19_22  and  C20_23
REMARK   11  A    between atoms: C19_22  and  C21_24
REMARK   12  A    between atoms: C19_22  and  C22_25
REMARK                            x       y       z     vdW  Elec       q    Type
REMARK                         _______ _______ _______ _____ _____    ______ ____
ROOT
ATOM      7  C   UNL     1      50.663  19.621  17.946  0.00  0.00    -0.164 A 
ATOM      8  C   UNL     1      50.824  18.335  17.465  0.00  0.00    +0.216 A 
ATOM     11  C   UNL     1      49.829  17.379  17.704  0.00  0.00    -0.264 A 
ATOM     12  C   UNL     1      49.954  16.006  17.186  0.00  0.00    +0.443 A 
ATOM     13  C   UNL     1      48.728  15.179  17.243  0.00  0.00    -0.210 A 
ATOM     14  C   UNL     1      48.640  13.973  16.550  0.00  0.00    +0.108 A 
ATOM     15  C   UNL     1      47.484  13.228  16.619  0.00  0.00    +0.011 A 
ATOM     16  C   UNL     1      46.410  13.675  17.375  0.00  0.00    +0.065 A 
ATOM     17  C   UNL     1      46.484  14.869  18.068  0.00  0.00    +0.086 A 
ATOM     20  C   UNL     1      47.649  15.637  18.013  0.00  0.00    +0.125 A 
ATOM     21  O   UNL     1      47.725  16.797  18.697  0.00  0.00    -0.206 OA
ATOM     22  O   UNL     1      51.001  15.577  16.737  0.00  0.00    -0.431 OA
ATOM     23  C   UNL     1      48.678  17.714  18.442  0.00  0.00    +0.189 A 
ATOM     24  C   UNL     1      48.536  19.011  18.913  0.00  0.00    -0.132 A 
ATOM     30  C   UNL     1      49.524  19.955  18.670  0.00  0.00    +0.196 A 
ENDROOT
BRANCH  24  25
ATOM     25  C   UNL     1      47.308  19.396  19.696  0.00  0.00    +0.014 C 
ATOM     28  C   UNL     1      47.653  20.532  20.661  0.00  0.00    +0.051 C 
ATOM     29  C   UNL     1      46.810  18.187  20.490  0.00  0.00    +0.044 C 
BRANCH  25  26
ATOM     26  C   UNL     1      46.229  19.852  18.748  0.00  0.00    +0.012 C 
ATOM     27  C   UNL     1      45.881  21.114  18.711  0.00  0.00    -0.033 C 
ENDBRANCH  25  26
ENDBRANCH  24  25
BRANCH   8   9
ATOM      9  O   UNL     1      51.938  18.001  16.766  0.00  0.00    -0.473 OA
ATOM     10  H   UNL     1      52.756  18.364  17.134  0.00  0.00    +0.402 HD
ENDBRANCH   8   9
BRANCH  17  18
ATOM     18  O   UNL     1      45.423  15.294  18.803  0.00  0.00    -0.480 OA
ATOM     19  H   UNL     1      45.149  14.673  19.492  0.00  0.00    +0.393 HD
ENDBRANCH  17  18
BRANCH  30  31
ATOM     31  O   UNL     1      49.373  21.219  19.139  0.00  0.00    -0.470 OA
ATOM     32  H   UNL     1      50.124  21.800  18.953  0.00  0.00    +0.398 HD
ENDBRANCH  30  31
BRANCH   7   6
ATOM      6  C   UNL     1      51.724  20.660  17.691  0.00  0.00    +0.098 C 
BRANCH   6   5
ATOM      5  C   UNL     1      52.852  20.498  18.712  0.00  0.00    +0.055 C 
BRANCH   5   4
ATOM      1  C   UNL     1      52.237  19.536  21.291  0.00  0.00    +0.073 C 
ATOM      2  C   UNL     1      52.301  21.020  21.033  0.00  0.00    -0.128 C 
ATOM      3  C   UNL     1      51.973  21.991  22.137  0.00  0.00    +0.072 C 
ATOM      4  C   UNL     1      52.643  21.465  19.849  0.00  0.00    -0.061 C 
ENDBRANCH   5   4
ENDBRANCH   6   5
ENDBRANCH   7   6
TORSDOF 8
ENDMDL
MODEL 4
REMARK VINA RESULT:      -5.7      2.966      7.100
REMARK  Name = ZINC95485970
REMARK  12 active torsions:
REMARK  status: ('A' for Active; 'I' for Inactive)
REMARK    1  A    between atoms: C1_1  and  C2_2
REMARK    2  A    between atoms: C2_2  and  C24_29
REMARK    3  A    between atoms: C3_3  and  C4_4
REMARK    4  A    between atoms: C4_4  and  C5_5
REMARK    5  A    between atoms: C5_5  and  C6_6
REMARK    6  A    between atoms: C7_7  and  O5_28
REMARK    7  A    between atoms: C14_15  and  O4_27
REMARK    8  A    between atoms: C17_19  and  C19_22
REMARK    9  A    between atoms: C18_20  and  O3_21
REMARK   10  A    between atoms: C19_22  and  C20_23
REMARK   11  A    between atoms: C19_22  and  C21_24
REMARK   12  A    between atoms: C19_22  and  C22_25
REMARK                            x       y       z     vdW  Elec       q    Type
REMARK                         _______ _______ _______ _____ _____    ______ ____
ROOT
ATOM      7  C   UNL     1      46.933  17.645  20.492  0.00  0.00    -0.164 A 
ATOM      8  C   UNL     1      47.652  18.805  20.272  0.00  0.00    +0.216 A 
ATOM     11  C   UNL     1      48.763  18.777  19.419  0.00  0.00    -0.264 A 
ATOM     12  C   UNL     1      49.538  19.997  19.139  0.00  0.00    +0.443 A 
ATOM     13  C   UNL     1      50.492  19.914  18.012  0.00  0.00    -0.210 A 
ATOM     14  C   UNL     1      51.081  21.060  17.481  0.00  0.00    +0.108 A 
ATOM     15  C   UNL     1      51.962  20.950  16.427  0.00  0.00    +0.011 A 
ATOM     16  C   UNL     1      52.261  19.704  15.896  0.00  0.00    +0.065 A 
ATOM     17  C   UNL     1      51.686  18.559  16.414  0.00  0.00    +0.086 A 
ATOM     20  C   UNL     1      50.792  18.650  17.484  0.00  0.00    +0.125 A 
ATOM     21  O   UNL     1      50.237  17.532  17.995  0.00  0.00    -0.206 OA
ATOM     22  O   UNL     1      49.402  21.014  19.796  0.00  0.00    -0.431 OA
ATOM     23  C   UNL     1      49.158  17.576  18.800  0.00  0.00    +0.189 A 
ATOM     24  C   UNL     1      48.420  16.424  19.034  0.00  0.00    -0.132 A 
ATOM     30  C   UNL     1      47.319  16.460  19.878  0.00  0.00    +0.196 A 
ENDROOT
BRANCH  24  25
ATOM     25  C   UNL     1      48.819  15.130  18.375  0.00  0.00    +0.014 C 
ATOM     28  C   UNL     1      48.276  13.954  19.189  0.00  0.00    +0.051 C 
ATOM     29  C   UNL     1      50.345  15.041  18.306  0.00  0.00    +0.044 C 
BRANCH  25  26
ATOM     26  C   UNL     1      48.250  15.079  16.981  0.00  0.00    +0.012 C 
ATOM     27  C   UNL     1      47.258  14.269  16.707  0.00  0.00    -0.033 C 
ENDBRANCH  25  26
ENDBRANCH  24  25
BRANCH   8   9
ATOM      9  O   UNL     1      47.285  19.963  20.877  0.00  0.00    -0.473 OA
ATOM     10  H   UNL     1      47.445  20.753  20.343  0.00  0.00    +0.402 HD
ENDBRANCH   8   9
BRANCH  17  18
ATOM     18  O   UNL     1      51.989  17.346  15.882  0.00  0.00    -0.480 OA
ATOM     19  H   UNL     1      52.775  16.934  16.267  0.00  0.00    +0.393 HD
ENDBRANCH  17  18
BRANCH  30  31
ATOM     31  O   UNL     1      46.609  15.326  20.100  0.00  0.00    -0.470 OA
ATOM     32  H   UNL     1      47.071  14.515  19.845  0.00  0.00    +0.398 HD
ENDBRANCH  30  31
BRANCH   7   6
ATOM      6  C   UNL     1      45.733  17.664  21.405  0.00  0.00    +0.098 C 
BRANCH   6   5
ATOM      5  C   UNL     1      44.458  17.776  20.568  0.00  0.00    +0.055 C 
BRANCH   5   4
ATOM      1  C   UNL     1      44.628  19.543  18.377  0.00  0.00    +0.073 C 
ATOM      2  C   UNL     1      44.037  20.012  19.682  0.00  0.00    -0.128 C 
ATOM      3  C   UNL     1      43.596  21.445  19.837  0.00  0.00    +0.072 C 
ATOM      4  C   UNL     1      43.905  19.175  20.680  0.00  0.00    -0.061 C 
ENDBRANCH   5   4
ENDBRANCH   6   5
ENDBRANCH   7   6
TORSDOF 8
ENDMDL
MODEL 5
REMARK VINA RESULT:      -5.7      3.202      6.939
REMARK  Name = ZINC95485970
REMARK  12 active torsions:
REMARK  status: ('A' for Active; 'I' for Inactive)
REMARK    1  A    between atoms: C1_1  and  C2_2
REMARK    2  A    between atoms: C2_2  and  C24_29
REMARK    3  A    between atoms: C3_3  and  C4_4
REMARK    4  A    between atoms: C4_4  and  C5_5
REMARK    5  A    between atoms: C5_5  and  C6_6
REMARK    6  A    between atoms: C7_7  and  O5_28
REMARK    7  A    between atoms: C14_15  and  O4_27
REMARK    8  A    between atoms: C17_19  and  C19_22
REMARK    9  A    between atoms: C18_20  and  O3_21
REMARK   10  A    between atoms: C19_22  and  C20_23
REMARK   11  A    between atoms: C19_22  and  C21_24
REMARK   12  A    between atoms: C19_22  and  C22_25
REMARK                            x       y       z     vdW  Elec       q    Type
REMARK                         _______ _______ _______ _____ _____    ______ ____
ROOT
ATOM      7  C   UNL     1      46.578  19.409  19.618  0.00  0.00    -0.164 A 
ATOM      8  C   UNL     1      46.451  18.237  18.896  0.00  0.00    +0.216 A 
ATOM     11  C   UNL     1      47.580  17.676  18.286  0.00  0.00    -0.264 A 
ATOM     12  C   UNL     1      47.487  16.415  17.531  0.00  0.00    +0.443 A 
ATOM     13  C   UNL     1      48.775  15.771  17.187  0.00  0.00    -0.210 A 
ATOM     14  C   UNL     1      48.821  14.460  16.718  0.00  0.00    +0.108 A 
ATOM     15  C   UNL     1      50.036  13.886  16.412  0.00  0.00    +0.011 A 
ATOM     16  C   UNL     1      51.208  14.611  16.569  0.00  0.00    +0.065 A 
ATOM     17  C   UNL     1      51.176  15.913  17.032  0.00  0.00    +0.086 A 
ATOM     20  C   UNL     1      49.955  16.513  17.346  0.00  0.00    +0.125 A 
ATOM     21  O   UNL     1      49.923  17.787  17.788  0.00  0.00    -0.206 OA
ATOM     22  O   UNL     1      46.418  15.930  17.209  0.00  0.00    -0.431 OA
ATOM     23  C   UNL     1      48.834  18.305  18.389  0.00  0.00    +0.189 A 
ATOM     24  C   UNL     1      48.940  19.479  19.120  0.00  0.00    -0.132 A 
ATOM     30  C   UNL     1      47.818  20.029  19.726  0.00  0.00    +0.196 A 
ENDROOT
BRANCH  24  25
ATOM     25  C   UNL     1      50.275  20.165  19.253  0.00  0.00    +0.014 C 
ATOM     28  C   UNL     1      51.387  19.115  19.271  0.00  0.00    +0.051 C 
ATOM     29  C   UNL     1      50.310  20.967  20.555  0.00  0.00    +0.044 C 
BRANCH  25  26
ATOM     26  C   UNL     1      50.481  21.094  18.085  0.00  0.00    +0.012 C 
ATOM     27  C   UNL     1      51.540  20.966  17.325  0.00  0.00    -0.033 C 
ENDBRANCH  25  26
ENDBRANCH  24  25
BRANCH   8   9
ATOM      9  O   UNL     1      45.241  17.634  18.780  0.00  0.00    -0.473 OA
ATOM     10  H   UNL     1      44.556  18.198  18.393  0.00  0.00    +0.402 HD
ENDBRANCH   8   9
BRANCH  17  18
ATOM     18  O   UNL     1      52.334  16.609  17.182  0.00  0.00    -0.480 OA
ATOM     19  H   UNL     1      52.273  17.535  16.907  0.00  0.00    +0.393 HD
ENDBRANCH  17  18
BRANCH  30  31
ATOM     31  O   UNL     1      47.935  21.179  20.434  0.00  0.00    -0.470 OA
ATOM     32  H   UNL     1      48.414  21.080  21.270  0.00  0.00    +0.398 HD
ENDBRANCH  30  31
BRANCH   7   6
ATOM      6  C   UNL     1      45.371  20.021  20.283  0.00  0.00    +0.098 C 
BRANCH   6   5
ATOM      5  C   UNL     1      44.670  20.961  19.301  0.00  0.00    +0.055 C 
BRANCH   5   4
ATOM      1  C   UNL     1      42.559  22.829  19.215  0.00  0.00    +0.073 C 
ATOM      2  C   UNL     1      42.269  21.355  19.099  0.00  0.00    -0.128 C 
ATOM      3  C   UNL     1      40.844  20.873  19.003  0.00  0.00    +0.072 C 
ATOM      4  C   UNL     1      43.254  20.492  19.082  0.00  0.00    -0.061 C 
ENDBRANCH   5   4
ENDBRANCH   6   5
ENDBRANCH   7   6
TORSDOF 8
ENDMDL
MODEL 6
REMARK VINA RESULT:      -5.4      2.866      7.049
REMARK  Name = ZINC95485970
REMARK  12 active torsions:
REMARK  status: ('A' for Active; 'I' for Inactive)
REMARK    1  A    between atoms: C1_1  and  C2_2
REMARK    2  A    between atoms: C2_2  and  C24_29
REMARK    3  A    between atoms: C3_3  and  C4_4
REMARK    4  A    between atoms: C4_4  and  C5_5
REMARK    5  A    between atoms: C5_5  and  C6_6
REMARK    6  A    between atoms: C7_7  and  O5_28
REMARK    7  A    between atoms: C14_15  and  O4_27
REMARK    8  A    between atoms: C17_19  and  C19_22
REMARK    9  A    between atoms: C18_20  and  O3_21
REMARK   10  A    between atoms: C19_22  and  C20_23
REMARK   11  A    between atoms: C19_22  and  C21_24
REMARK   12  A    between atoms: C19_22  and  C22_25
REMARK                            x       y       z     vdW  Elec       q    Type
REMARK                         _______ _______ _______ _____ _____    ______ ____
ROOT
ATOM      7  C   UNL     1      46.533  17.794  20.328  0.00  0.00    -0.164 A 
ATOM      8  C   UNL     1      47.289  18.934  20.131  0.00  0.00    +0.216 A 
ATOM     11  C   UNL     1      48.465  18.861  19.373  0.00  0.00    -0.264 A 
ATOM     12  C   UNL     1      49.283  20.059  19.121  0.00  0.00    +0.443 A 
ATOM     13  C   UNL     1      50.325  19.923  18.079  0.00  0.00    -0.210 A 
ATOM     14  C   UNL     1      50.976  21.042  17.563  0.00  0.00    +0.108 A 
ATOM     15  C   UNL     1      51.938  20.883  16.590  0.00  0.00    +0.011 A 
ATOM     16  C   UNL     1      52.258  19.616  16.125  0.00  0.00    +0.065 A 
ATOM     17  C   UNL     1      51.620  18.498  16.630  0.00  0.00    +0.086 A 
ATOM     20  C   UNL     1      50.644  18.638  17.618  0.00  0.00    +0.125 A 
ATOM     21  O   UNL     1      50.029  17.546  18.117  0.00  0.00    -0.206 OA
ATOM     22  O   UNL     1      49.112  21.099  19.731  0.00  0.00    -0.431 OA
ATOM     23  C   UNL     1      48.888  17.634  18.829  0.00  0.00    +0.189 A 
ATOM     24  C   UNL     1      48.112  16.502  19.037  0.00  0.00    -0.132 A 
ATOM     30  C   UNL     1      46.946  16.583  19.785  0.00  0.00    +0.196 A 
ENDROOT
BRANCH  24  25
ATOM     25  C   UNL     1      48.540  15.181  18.454  0.00  0.00    +0.014 C 
ATOM     28  C   UNL     1      48.139  15.120  16.979  0.00  0.00    +0.051 C 
ATOM     29  C   UNL     1      47.858  14.043  19.215  0.00  0.00    +0.044 C 
BRANCH  25  26
ATOM     26  C   UNL     1      50.036  15.039  18.574  0.00  0.00    +0.012 C 
ATOM     27  C   UNL     1      50.552  14.381  19.581  0.00  0.00    -0.033 C 
ENDBRANCH  25  26
ENDBRANCH  24  25
BRANCH   8   9
ATOM      9  O   UNL     1      46.895  20.117  20.667  0.00  0.00    -0.473 OA
ATOM     10  H   UNL     1      45.980  20.119  20.984  0.00  0.00    +0.402 HD
ENDBRANCH   8   9
BRANCH  17  18
ATOM     18  O   UNL     1      51.944  17.263  16.163  0.00  0.00    -0.480 OA
ATOM     19  H   UNL     1      52.162  16.626  16.857  0.00  0.00    +0.393 HD
ENDBRANCH  17  18
BRANCH  30  31
ATOM     31  O   UNL     1      46.199  15.468  19.983  0.00  0.00    -0.470 OA
ATOM     32  H   UNL     1      46.123  14.901  19.203  0.00  0.00    +0.398 HD
ENDBRANCH  30  31
BRANCH   7   6
ATOM      6  C   UNL     1      45.263  17.861  21.137  0.00  0.00    +0.098 C 
BRANCH   6   5
ATOM      5  C   UNL     1      44.105  18.294  20.235  0.00  0.00    +0.055 C 
BRANCH   5   4
ATOM      1  C   UNL     1      41.889  19.758  19.287  0.00  0.00    +0.073 C 
ATOM      2  C   UNL     1      41.824  19.071  20.627  0.00  0.00    -0.128 C 
ATOM      3  C   UNL     1      40.599  19.220  21.491  0.00  0.00    +0.072 C 
ATOM      4  C   UNL     1      42.832  18.344  21.041  0.00  0.00    -0.061 C 
ENDBRANCH   5   4
ENDBRANCH   6   5
ENDBRANCH   7   6
TORSDOF 8
ENDMDL
MODEL 7
REMARK VINA RESULT:      -5.4      3.483      7.054
REMARK  Name = ZINC95485970
REMARK  12 active torsions:
REMARK  status: ('A' for Active; 'I' for Inactive)
REMARK    1  A    between atoms: C1_1  and  C2_2
REMARK    2  A    between atoms: C2_2  and  C24_29
REMARK    3  A    between atoms: C3_3  and  C4_4
REMARK    4  A    between atoms: C4_4  and  C5_5
REMARK    5  A    between atoms: C5_5  and  C6_6
REMARK    6  A    between atoms: C7_7  and  O5_28
REMARK    7  A    between atoms: C14_15  and  O4_27
REMARK    8  A    between atoms: C17_19  and  C19_22
REMARK    9  A    between atoms: C18_20  and  O3_21
REMARK   10  A    between atoms: C19_22  and  C20_23
REMARK   11  A    between atoms: C19_22  and  C21_24
REMARK   12  A    between atoms: C19_22  and  C22_25
REMARK                            x       y       z     vdW  Elec       q    Type
REMARK                         _______ _______ _______ _____ _____    ______ ____
ROOT
ATOM      7  C   UNL     1      48.750  18.773  19.976  0.00  0.00    -0.164 A 
ATOM      8  C   UNL     1      47.704  17.922  19.670  0.00  0.00    +0.216 A 
ATOM     11  C   UNL     1      47.886  16.924  18.705  0.00  0.00    -0.264 A 
ATOM     12  C   UNL     1      46.803  15.983  18.372  0.00  0.00    +0.443 A 
ATOM     13  C   UNL     1      47.195  14.804  17.568  0.00  0.00    -0.210 A 
ATOM     14  C   UNL     1      46.334  13.718  17.416  0.00  0.00    +0.108 A 
ATOM     15  C   UNL     1      46.730  12.633  16.666  0.00  0.00    +0.011 A 
ATOM     16  C   UNL     1      47.979  12.620  16.063  0.00  0.00    +0.065 A 
ATOM     17  C   UNL     1      48.841  13.691  16.204  0.00  0.00    +0.086 A 
ATOM     20  C   UNL     1      48.458  14.801  16.959  0.00  0.00    +0.125 A 
ATOM     21  O   UNL     1      49.296  15.851  17.089  0.00  0.00    -0.206 OA
ATOM     22  O   UNL     1      45.655  16.163  18.735  0.00  0.00    -0.431 OA
ATOM     23  C   UNL     1      49.117  16.793  18.035  0.00  0.00    +0.189 A 
ATOM     24  C   UNL     1      50.153  17.656  18.359  0.00  0.00    -0.132 A 
ATOM     30  C   UNL     1      49.969  18.641  19.319  0.00  0.00    +0.196 A 
ENDROOT
BRANCH  24  25
ATOM     25  C   UNL     1      51.483  17.528  17.662  0.00  0.00    +0.014 C 
ATOM     28  C   UNL     1      51.829  16.047  17.492  0.00  0.00    +0.051 C 
ATOM     29  C   UNL     1      52.566  18.211  18.499  0.00  0.00    +0.044 C 
BRANCH  25  26
ATOM     26  C   UNL     1      51.406  18.183  16.308  0.00  0.00    +0.012 C 
ATOM     27  C   UNL     1      51.940  19.365  16.121  0.00  0.00    -0.033 C 
ENDBRANCH  25  26
ENDBRANCH  24  25
BRANCH   8   9
ATOM      9  O   UNL     1      46.510  18.053  20.301  0.00  0.00    -0.473 OA
ATOM     10  H   UNL     1      46.201  17.242  20.729  0.00  0.00    +0.402 HD
ENDBRANCH   8   9
BRANCH  17  18
ATOM     18  O   UNL     1      50.063  13.663  15.609  0.00  0.00    -0.480 OA
ATOM     19  H   UNL     1      50.624  12.929  15.898  0.00  0.00    +0.393 HD
ENDBRANCH  17  18
BRANCH  30  31
ATOM     31  O   UNL     1      50.990  19.480  19.623  0.00  0.00    -0.470 OA
ATOM     32  H   UNL     1      50.848  19.997  20.429  0.00  0.00    +0.398 HD
ENDBRANCH  30  31
BRANCH   7   6
ATOM      6  C   UNL     1      48.569  19.849  21.016  0.00  0.00    +0.098 C 
BRANCH   6   5
ATOM      5  C   UNL     1      48.173  21.158  20.331  0.00  0.00    +0.055 C 
BRANCH   5   4
ATOM      1  C   UNL     1      45.854  21.195  18.726  0.00  0.00    +0.073 C 
ATOM      2  C   UNL     1      45.804  21.718  20.139  0.00  0.00    -0.128 C 
ATOM      3  C   UNL     1      44.531  22.322  20.673  0.00  0.00    +0.072 C 
ATOM      4  C   UNL     1      46.866  21.648  20.902  0.00  0.00    -0.061 C 
ENDBRANCH   5   4
ENDBRANCH   6   5
ENDBRANCH   7   6
TORSDOF 8
ENDMDL
MODEL 8
REMARK VINA RESULT:      -5.3      3.332      6.977
REMARK  Name = ZINC95485970
REMARK  12 active torsions:
REMARK  status: ('A' for Active; 'I' for Inactive)
REMARK    1  A    between atoms: C1_1  and  C2_2
REMARK    2  A    between atoms: C2_2  and  C24_29
REMARK    3  A    between atoms: C3_3  and  C4_4
REMARK    4  A    between atoms: C4_4  and  C5_5
REMARK    5  A    between atoms: C5_5  and  C6_6
REMARK    6  A    between atoms: C7_7  and  O5_28
REMARK    7  A    between atoms: C14_15  and  O4_27
REMARK    8  A    between atoms: C17_19  and  C19_22
REMARK    9  A    between atoms: C18_20  and  O3_21
REMARK   10  A    between atoms: C19_22  and  C20_23
REMARK   11  A    between atoms: C19_22  and  C21_24
REMARK   12  A    between atoms: C19_22  and  C22_25
REMARK                            x       y       z     vdW  Elec       q    Type
REMARK                         _______ _______ _______ _____ _____    ______ ____
ROOT
ATOM      7  C   UNL     1      48.494  19.857  20.759  0.00  0.00    -0.164 A 
ATOM      8  C   UNL     1      47.999  18.661  20.274  0.00  0.00    +0.216 A 
ATOM     11  C   UNL     1      48.684  17.993  19.252  0.00  0.00    -0.264 A 
ATOM     12  C   UNL     1      48.201  16.704  18.728  0.00  0.00    +0.443 A 
ATOM     13  C   UNL     1      49.149  15.958  17.871  0.00  0.00    -0.210 A 
ATOM     14  C   UNL     1      48.922  14.624  17.539  0.00  0.00    +0.108 A 
ATOM     15  C   UNL     1      49.826  13.954  16.743  0.00  0.00    +0.011 A 
ATOM     16  C   UNL     1      50.958  14.605  16.275  0.00  0.00    +0.065 A 
ATOM     17  C   UNL     1      51.195  15.928  16.596  0.00  0.00    +0.086 A 
ATOM     20  C   UNL     1      50.289  16.625  17.400  0.00  0.00    +0.125 A 
ATOM     21  O   UNL     1      50.516  17.919  17.705  0.00  0.00    -0.206 OA
ATOM     22  O   UNL     1      47.090  16.278  18.985  0.00  0.00    -0.431 OA
ATOM     23  C   UNL     1      49.860  18.540  18.705  0.00  0.00    +0.189 A 
ATOM     24  C   UNL     1      50.340  19.741  19.207  0.00  0.00    -0.132 A 
ATOM     30  C   UNL     1      49.659  20.395  20.224  0.00  0.00    +0.196 A 
ENDROOT
BRANCH  24  25
ATOM     25  C   UNL     1      51.603  20.340  18.644  0.00  0.00    +0.014 C 
ATOM     28  C   UNL     1      52.603  19.224  18.335  0.00  0.00    +0.051 C 
ATOM     29  C   UNL     1      52.212  21.301  19.667  0.00  0.00    +0.044 C 
BRANCH  25  26
ATOM     26  C   UNL     1      51.282  21.091  17.378  0.00  0.00    +0.012 C 
ATOM     27  C   UNL     1      51.859  20.753  16.252  0.00  0.00    -0.033 C 
ENDBRANCH  25  26
ENDBRANCH  24  25
BRANCH   8   9
ATOM      9  O   UNL     1      46.857  18.136  20.787  0.00  0.00    -0.473 OA
ATOM     10  H   UNL     1      46.355  18.752  21.339  0.00  0.00    +0.402 HD
ENDBRANCH   8   9
BRANCH  17  18
ATOM     18  O   UNL     1      52.310  16.551  16.131  0.00  0.00    -0.480 OA
ATOM     19  H   UNL     1      52.419  16.494  15.171  0.00  0.00    +0.393 HD
ENDBRANCH  17  18
BRANCH  30  31
ATOM     31  O   UNL     1      50.138  21.570  20.703  0.00  0.00    -0.470 OA
ATOM     32  H   UNL     1      50.960  21.861  20.284  0.00  0.00    +0.398 HD
ENDBRANCH  30  31
BRANCH   7   6
ATOM      6  C   UNL     1      47.768  20.583  21.863  0.00  0.00    +0.098 C 
BRANCH   6   5
ATOM      5  C   UNL     1      46.953  21.732  21.268  0.00  0.00    +0.055 C 
BRANCH   5   4
ATOM      1  C   UNL     1      45.851  21.291  18.709  0.00  0.00    +0.073 C 
ATOM      2  C   UNL     1      44.987  21.158  19.937  0.00  0.00    -0.128 C 
ATOM      3  C   UNL     1      43.519  20.853  19.795  0.00  0.00    +0.072 C 
ATOM      4  C   UNL     1      45.513  21.306  21.127  0.00  0.00    -0.061 C 
ENDBRANCH   5   4
ENDBRANCH   6   5
ENDBRANCH   7   6
TORSDOF 8
ENDMDL
MODEL 9
REMARK VINA RESULT:      -5.1      2.667      7.184
REMARK  Name = ZINC95485970
REMARK  12 active torsions:
REMARK  status: ('A' for Active; 'I' for Inactive)
REMARK    1  A    between atoms: C1_1  and  C2_2
REMARK    2  A    between atoms: C2_2  and  C24_29
REMARK    3  A    between atoms: C3_3  and  C4_4
REMARK    4  A    between atoms: C4_4  and  C5_5
REMARK    5  A    between atoms: C5_5  and  C6_6
REMARK    6  A    between atoms: C7_7  and  O5_28
REMARK    7  A    between atoms: C14_15  and  O4_27
REMARK    8  A    between atoms: C17_19  and  C19_22
REMARK    9  A    between atoms: C18_20  and  O3_21
REMARK   10  A    between atoms: C19_22  and  C20_23
REMARK   11  A    between atoms: C19_22  and  C21_24
REMARK   12  A    between atoms: C19_22  and  C22_25
REMARK                            x       y       z     vdW  Elec       q    Type
REMARK                         _______ _______ _______ _____ _____    ______ ____
ROOT
ATOM      7  C   UNL     1      46.511  19.534  21.468  0.00  0.00    -0.164 A 
ATOM      8  C   UNL     1      47.724  20.184  21.341  0.00  0.00    +0.216 A 
ATOM     11  C   UNL     1      48.640  19.756  20.371  0.00  0.00    -0.264 A 
ATOM     12  C   UNL     1      49.931  20.440  20.190  0.00  0.00    +0.443 A 
ATOM     13  C   UNL     1      50.678  20.095  18.960  0.00  0.00    -0.210 A 
ATOM     14  C   UNL     1      51.767  20.858  18.541  0.00  0.00    +0.108 A 
ATOM     15  C   UNL     1      52.439  20.515  17.389  0.00  0.00    +0.011 A 
ATOM     16  C   UNL     1      52.035  19.414  16.648  0.00  0.00    +0.065 A 
ATOM     17  C   UNL     1      50.958  18.648  17.053  0.00  0.00    +0.086 A 
ATOM     20  C   UNL     1      50.265  18.978  18.219  0.00  0.00    +0.125 A 
ATOM     21  O   UNL     1      49.220  18.224  18.619  0.00  0.00    -0.206 OA
ATOM     22  O   UNL     1      50.358  21.241  21.001  0.00  0.00    -0.431 OA
ATOM     23  C   UNL     1      48.339  18.660  19.540  0.00  0.00    +0.189 A 
ATOM     24  C   UNL     1      47.115  18.023  19.684  0.00  0.00    -0.132 A 
ATOM     30  C   UNL     1      46.211  18.455  20.643  0.00  0.00    +0.196 A 
ENDROOT
BRANCH  24  25
ATOM     25  C   UNL     1      46.767  16.855  18.798  0.00  0.00    +0.014 C 
ATOM     28  C   UNL     1      46.467  17.358  17.384  0.00  0.00    +0.051 C 
ATOM     29  C   UNL     1      45.536  16.140  19.356  0.00  0.00    +0.044 C 
BRANCH  25  26
ATOM     26  C   UNL     1      47.928  15.896  18.753  0.00  0.00    +0.012 C 
ATOM     27  C   UNL     1      48.079  15.098  17.725  0.00  0.00    -0.033 C 
ENDBRANCH  25  26
ENDBRANCH  24  25
BRANCH   8   9
ATOM      9  O   UNL     1      48.026  21.231  22.150  0.00  0.00    -0.473 OA
ATOM     10  H   UNL     1      48.820  21.717  21.884  0.00  0.00    +0.402 HD
ENDBRANCH   8   9
BRANCH  17  18
ATOM     18  O   UNL     1      50.574  17.573  16.315  0.00  0.00    -0.480 OA
ATOM     19  H   UNL     1      50.464  17.763  15.373  0.00  0.00    +0.393 HD
ENDBRANCH  17  18
BRANCH  30  31
ATOM     31  O   UNL     1      45.019  17.821  20.775  0.00  0.00    -0.470 OA
ATOM     32  H   UNL     1      44.361  18.077  20.112  0.00  0.00    +0.398 HD
ENDBRANCH  30  31
BRANCH   7   6
ATOM      6  C   UNL     1      45.516  19.989  22.505  0.00  0.00    +0.098 C 
BRANCH   6   5
ATOM      5  C   UNL     1      44.433  20.837  21.835  0.00  0.00    +0.055 C 
BRANCH   5   4
ATOM      1  C   UNL     1      45.102  22.246  19.485  0.00  0.00    +0.073 C 
ATOM      2  C   UNL     1      45.183  22.930  20.825  0.00  0.00    -0.128 C 
ATOM      3  C   UNL     1      45.685  24.348  20.918  0.00  0.00    +0.072 C 
ATOM      4  C   UNL     1      44.818  22.293  21.910  0.00  0.00    -0.061 C 
ENDBRANCH   5   4
ENDBRANCH   6   5
ENDBRANCH   7   6
TORSDOF 8
ENDMDL
