MODEL 1
REMARK VINA RESULT:      -7.0      0.000      0.000
REMARK  Name = ZINC95486078
REMARK  6 active torsions:
REMARK  status: ('A' for Active; 'I' for Inactive)
REMARK    1  A    between atoms: C1_1  and  C2_2
REMARK    2  A    between atoms: C2_2  and  C24_32
REMARK    3  A    between atoms: C3_3  and  C4_4
REMARK    4  A    between atoms: C4_4  and  C5_5
REMARK    5  A    between atoms: C14_15  and  O1_17
REMARK    6  A    between atoms: C22_29  and  O4_31
REMARK                            x       y       z     vdW  Elec       q    Type
REMARK                         _______ _______ _______ _____ _____    ______ ____
ROOT
ATOM      6  C   UNL     1      44.602  20.558  20.036  0.00  0.00    +0.012 C 
ATOM      7  C   UNL     1      45.119  19.616  18.950  0.00  0.00    +0.095 C 
ATOM      8  C   UNL     1      45.089  18.189  19.428  0.00  0.00    -0.089 A 
ATOM      9  C   UNL     1      45.849  17.255  18.729  0.00  0.00    +0.068 A 
ATOM     10  C   UNL     1      45.859  15.946  19.114  0.00  0.00    -0.157 A 
ATOM     11  C   UNL     1      45.116  15.518  20.225  0.00  0.00    +0.137 A 
ATOM     12  O   UNL     1      45.167  14.230  20.639  0.00  0.00    -0.324 OA
ATOM     13  C   UNL     1      45.425  13.149  19.735  0.00  0.00    +0.273 C 
ATOM     14  C   UNL     1      45.570  13.696  18.337  0.00  0.00    -0.017 C 
ATOM     15  C   UNL     1      46.189  12.864  17.277  0.00  0.00    -0.163 A 
ATOM     16  C   UNL     1      46.097  11.527  16.962  0.00  0.00    +0.095 A 
ATOM     17  C   UNL     1      46.820  11.078  15.865  0.00  0.00    -0.034 A 
ATOM     18  C   UNL     1      47.604  11.940  15.116  0.00  0.00    +0.142 A 
ATOM     21  C   UNL     1      47.712  13.296  15.431  0.00  0.00    -0.011 A 
ATOM     22  C   UNL     1      46.995  13.754  16.530  0.00  0.00    +0.115 A 
ATOM     23  O   UNL     1      46.939  15.015  17.046  0.00  0.00    -0.278 OA
ATOM     24  C   UNL     1      44.354  16.452  20.905  0.00  0.00    -0.015 A 
ATOM     25  C   UNL     1      46.616  14.863  18.422  0.00  0.00    +0.224 C 
ATOM     26  C   UNL     1      44.342  17.782  20.511  0.00  0.00    -0.034 A 
ATOM     27  C   UNL     1      43.497  18.739  21.314  0.00  0.00    +0.056 C 
ATOM     28  C   UNL     1      43.251  20.027  20.531  0.00  0.00    +0.173 C 
ENDROOT
BRANCH  18  19
ATOM     19  O   UNL     1      48.288  11.453  14.048  0.00  0.00    -0.497 OA
ATOM     20  H   UNL     1      48.647  12.137  13.465  0.00  0.00    +0.396 HD
ENDBRANCH  18  19
BRANCH  28  29
ATOM     29  O   UNL     1      42.402  19.755  19.415  0.00  0.00    -0.557 OA
ATOM     30  H   UNL     1      42.201  18.818  19.293  0.00  0.00    +0.376 HD
ENDBRANCH  28  29
BRANCH   6   5
ATOM      5  C   UNL     1      44.423  21.963  19.458  0.00  0.00    +0.063 C 
BRANCH   5   4
ATOM      1  C   UNL     1      44.429  24.698  18.771  0.00  0.00    +0.072 C 
ATOM      2  C   UNL     1      45.130  24.231  20.020  0.00  0.00    -0.130 C 
ATOM      3  C   UNL     1      45.892  25.216  20.869  0.00  0.00    +0.070 C 
ATOM      4  C   UNL     1      45.077  22.969  20.369  0.00  0.00    -0.062 C 
ENDBRANCH   5   4
ENDBRANCH   6   5
TORSDOF 4
ENDMDL
MODEL 2
REMARK VINA RESULT:      -6.6      2.979      4.326
REMARK  Name = ZINC95486078
REMARK  6 active torsions:
REMARK  status: ('A' for Active; 'I' for Inactive)
REMARK    1  A    between atoms: C1_1  and  C2_2
REMARK    2  A    between atoms: C2_2  and  C24_32
REMARK    3  A    between atoms: C3_3  and  C4_4
REMARK    4  A    between atoms: C4_4  and  C5_5
REMARK    5  A    between atoms: C14_15  and  O1_17
REMARK    6  A    between atoms: C22_29  and  O4_31
REMARK                            x       y       z     vdW  Elec       q    Type
REMARK                         _______ _______ _______ _____ _____    ______ ____
ROOT
ATOM      6  C   UNL     1      44.464  21.120  19.228  0.00  0.00    +0.012 C 
ATOM      7  C   UNL     1      44.799  19.714  18.734  0.00  0.00    +0.095 C 
ATOM      8  C   UNL     1      46.287  19.483  18.757  0.00  0.00    -0.089 A 
ATOM      9  C   UNL     1      46.789  18.420  18.013  0.00  0.00    +0.068 A 
ATOM     10  C   UNL     1      48.129  18.161  17.998  0.00  0.00    -0.157 A 
ATOM     11  C   UNL     1      49.024  18.965  18.720  0.00  0.00    +0.137 A 
ATOM     12  O   UNL     1      50.359  18.740  18.663  0.00  0.00    -0.324 OA
ATOM     13  C   UNL     1      50.902  17.436  18.425  0.00  0.00    +0.273 C 
ATOM     14  C   UNL     1      49.773  16.443  18.306  0.00  0.00    -0.017 C 
ATOM     15  C   UNL     1      50.021  15.108  17.710  0.00  0.00    -0.163 A 
ATOM     16  C   UNL     1      51.065  14.215  17.811  0.00  0.00    +0.095 A 
ATOM     17  C   UNL     1      50.955  13.022  17.110  0.00  0.00    -0.034 A 
ATOM     18  C   UNL     1      49.840  12.739  16.339  0.00  0.00    +0.142 A 
ATOM     21  C   UNL     1      48.779  13.639  16.222  0.00  0.00    -0.011 A 
ATOM     22  C   UNL     1      48.882  14.838  16.916  0.00  0.00    +0.115 A 
ATOM     23  O   UNL     1      47.999  15.876  16.960  0.00  0.00    -0.278 OA
ATOM     24  C   UNL     1      48.513  20.011  19.467  0.00  0.00    -0.015 A 
ATOM     25  C   UNL     1      48.768  17.034  17.257  0.00  0.00    +0.224 C 
ATOM     26  C   UNL     1      47.150  20.272  19.484  0.00  0.00    -0.034 A 
ATOM     27  C   UNL     1      46.675  21.440  20.311  0.00  0.00    +0.056 C 
ATOM     28  C   UNL     1      45.173  21.341  20.570  0.00  0.00    +0.173 C 
ENDROOT
BRANCH  18  19
ATOM     19  O   UNL     1      49.777  11.554  15.677  0.00  0.00    -0.497 OA
ATOM     20  H   UNL     1      49.005  11.017  15.902  0.00  0.00    +0.396 HD
ENDBRANCH  18  19
BRANCH  28  29
ATOM     29  O   UNL     1      44.909  20.240  21.441  0.00  0.00    -0.557 OA
ATOM     30  H   UNL     1      45.439  20.241  22.249  0.00  0.00    +0.376 HD
ENDBRANCH  28  29
BRANCH   6   5
ATOM      5  C   UNL     1      42.952  21.254  19.416  0.00  0.00    +0.063 C 
BRANCH   5   4
ATOM      1  C   UNL     1      40.289  21.655  18.578  0.00  0.00    +0.072 C 
ATOM      2  C   UNL     1      40.993  20.360  18.266  0.00  0.00    -0.130 C 
ATOM      3  C   UNL     1      40.253  19.250  17.563  0.00  0.00    +0.070 C 
ATOM      4  C   UNL     1      42.249  20.197  18.605  0.00  0.00    -0.062 C 
ENDBRANCH   5   4
ENDBRANCH   6   5
TORSDOF 4
ENDMDL
MODEL 3
REMARK VINA RESULT:      -6.6      2.590      3.732
REMARK  Name = ZINC95486078
REMARK  6 active torsions:
REMARK  status: ('A' for Active; 'I' for Inactive)
REMARK    1  A    between atoms: C1_1  and  C2_2
REMARK    2  A    between atoms: C2_2  and  C24_32
REMARK    3  A    between atoms: C3_3  and  C4_4
REMARK    4  A    between atoms: C4_4  and  C5_5
REMARK    5  A    between atoms: C14_15  and  O1_17
REMARK    6  A    between atoms: C22_29  and  O4_31
REMARK                            x       y       z     vdW  Elec       q    Type
REMARK                         _______ _______ _______ _____ _____    ______ ____
ROOT
ATOM      6  C   UNL     1      44.848  20.984  19.199  0.00  0.00    +0.012 C 
ATOM      7  C   UNL     1      44.863  19.559  18.649  0.00  0.00    +0.095 C 
ATOM      8  C   UNL     1      46.275  19.044  18.549  0.00  0.00    -0.089 A 
ATOM      9  C   UNL     1      46.503  17.932  17.745  0.00  0.00    +0.068 A 
ATOM     10  C   UNL     1      47.762  17.419  17.617  0.00  0.00    -0.157 A 
ATOM     11  C   UNL     1      48.847  18.007  18.284  0.00  0.00    +0.137 A 
ATOM     12  O   UNL     1      50.104  17.530  18.117  0.00  0.00    -0.324 OA
ATOM     13  C   UNL     1      50.363  16.155  17.808  0.00  0.00    +0.273 C 
ATOM     14  C   UNL     1      49.055  15.405  17.757  0.00  0.00    -0.017 C 
ATOM     15  C   UNL     1      48.992  14.070  17.113  0.00  0.00    -0.163 A 
ATOM     16  C   UNL     1      49.845  12.989  17.112  0.00  0.00    +0.095 A 
ATOM     17  C   UNL     1      49.453  11.867  16.395  0.00  0.00    -0.034 A 
ATOM     18  C   UNL     1      48.250  11.834  15.710  0.00  0.00    +0.142 A 
ATOM     21  C   UNL     1      47.381  12.926  15.697  0.00  0.00    -0.011 A 
ATOM     22  C   UNL     1      47.767  14.056  16.407  0.00  0.00    +0.115 A 
ATOM     23  O   UNL     1      47.110  15.243  16.544  0.00  0.00    -0.278 OA
ATOM     24  C   UNL     1      48.608  19.104  19.092  0.00  0.00    -0.015 A 
ATOM     25  C   UNL     1      48.111  16.218  16.804  0.00  0.00    +0.224 C 
ATOM     26  C   UNL     1      47.327  19.624  19.223  0.00  0.00    -0.034 A 
ATOM     27  C   UNL     1      47.152  20.830  20.110  0.00  0.00    +0.056 C 
ATOM     28  C   UNL     1      45.683  21.014  20.485  0.00  0.00    +0.173 C 
ENDROOT
BRANCH  18  19
ATOM     19  O   UNL     1      47.907  10.709  15.029  0.00  0.00    -0.497 OA
ATOM     20  H   UNL     1      48.556   9.995  15.095  0.00  0.00    +0.396 HD
ENDBRANCH  18  19
BRANCH  28  29
ATOM     29  O   UNL     1      45.272  19.953  21.350  0.00  0.00    -0.557 OA
ATOM     30  H   UNL     1      45.156  20.220  22.272  0.00  0.00    +0.376 HD
ENDBRANCH  28  29
BRANCH   6   5
ATOM      5  C   UNL     1      43.409  21.402  19.509  0.00  0.00    +0.063 C 
BRANCH   5   4
ATOM      1  C   UNL     1      40.955  22.250  18.409  0.00  0.00    +0.072 C 
ATOM      2  C   UNL     1      41.291  20.782  18.466  0.00  0.00    -0.130 C 
ATOM      3  C   UNL     1      40.287  19.761  17.996  0.00  0.00    +0.070 C 
ATOM      4  C   UNL     1      42.456  20.393  18.924  0.00  0.00    -0.062 C 
ENDBRANCH   5   4
ENDBRANCH   6   5
TORSDOF 4
ENDMDL
MODEL 4
REMARK VINA RESULT:      -6.2      2.854      3.771
REMARK  Name = ZINC95486078
REMARK  6 active torsions:
REMARK  status: ('A' for Active; 'I' for Inactive)
REMARK    1  A    between atoms: C1_1  and  C2_2
REMARK    2  A    between atoms: C2_2  and  C24_32
REMARK    3  A    between atoms: C3_3  and  C4_4
REMARK    4  A    between atoms: C4_4  and  C5_5
REMARK    5  A    between atoms: C14_15  and  O1_17
REMARK    6  A    between atoms: C22_29  and  O4_31
REMARK                            x       y       z     vdW  Elec       q    Type
REMARK                         _______ _______ _______ _____ _____    ______ ____
ROOT
ATOM      6  C   UNL     1      46.983  18.899  19.648  0.00  0.00    +0.012 C 
ATOM      7  C   UNL     1      47.894  18.104  18.714  0.00  0.00    +0.095 C 
ATOM      8  C   UNL     1      47.442  16.670  18.626  0.00  0.00    -0.089 A 
ATOM      9  C   UNL     1      48.344  15.736  18.126  0.00  0.00    +0.068 A 
ATOM     10  C   UNL     1      47.989  14.421  18.021  0.00  0.00    -0.157 A 
ATOM     11  C   UNL     1      46.717  13.987  18.424  0.00  0.00    +0.137 A 
ATOM     12  O   UNL     1      46.384  12.675  18.368  0.00  0.00    -0.324 OA
ATOM     13  C   UNL     1      46.963  11.781  17.411  0.00  0.00    +0.273 C 
ATOM     14  C   UNL     1      47.909  12.551  16.523  0.00  0.00    -0.017 C 
ATOM     15  C   UNL     1      48.902  11.827  15.694  0.00  0.00    -0.163 A 
ATOM     16  C   UNL     1      48.840  10.662  14.962  0.00  0.00    +0.095 A 
ATOM     17  C   UNL     1      49.986  10.277  14.278  0.00  0.00    -0.034 A 
ATOM     18  C   UNL     1      51.145  11.032  14.330  0.00  0.00    +0.142 A 
ATOM     21  C   UNL     1      51.222  12.210  15.076  0.00  0.00    -0.011 A 
ATOM     22  C   UNL     1      50.083  12.601  15.767  0.00  0.00    +0.115 A 
ATOM     23  O   UNL     1      49.903  13.692  16.566  0.00  0.00    -0.278 OA
ATOM     24  C   UNL     1      45.823  14.925  18.907  0.00  0.00    -0.015 A 
ATOM     25  C   UNL     1      48.868  13.346  17.477  0.00  0.00    +0.224 C 
ATOM     26  C   UNL     1      46.184  16.262  19.011  0.00  0.00    -0.034 A 
ATOM     27  C   UNL     1      45.157  17.219  19.561  0.00  0.00    +0.056 C 
ATOM     28  C   UNL     1      45.529  18.661  19.222  0.00  0.00    +0.173 C 
ENDROOT
BRANCH  18  19
ATOM     19  O   UNL     1      52.238  10.616  13.638  0.00  0.00    -0.497 OA
ATOM     20  H   UNL     1      52.990  11.221  13.688  0.00  0.00    +0.396 HD
ENDBRANCH  18  19
BRANCH  28  29
ATOM     29  O   UNL     1      45.399  18.872  17.815  0.00  0.00    -0.557 OA
ATOM     30  H   UNL     1      44.933  19.685  17.580  0.00  0.00    +0.376 HD
ENDBRANCH  28  29
BRANCH   6   5
ATOM      5  C   UNL     1      47.314  20.389  19.545  0.00  0.00    +0.063 C 
BRANCH   5   4
ATOM      1  C   UNL     1      49.768  20.781  20.877  0.00  0.00    +0.072 C 
ATOM      2  C   UNL     1      49.712  20.809  19.372  0.00  0.00    -0.130 C 
ATOM      3  C   UNL     1      50.957  21.112  18.578  0.00  0.00    +0.070 C 
ATOM      4  C   UNL     1      48.582  20.569  18.753  0.00  0.00    -0.062 C 
ENDBRANCH   5   4
ENDBRANCH   6   5
TORSDOF 4
ENDMDL
MODEL 5
REMARK VINA RESULT:      -6.0      4.768      6.081
REMARK  Name = ZINC95486078
REMARK  6 active torsions:
REMARK  status: ('A' for Active; 'I' for Inactive)
REMARK    1  A    between atoms: C1_1  and  C2_2
REMARK    2  A    between atoms: C2_2  and  C24_32
REMARK    3  A    between atoms: C3_3  and  C4_4
REMARK    4  A    between atoms: C4_4  and  C5_5
REMARK    5  A    between atoms: C14_15  and  O1_17
REMARK    6  A    between atoms: C22_29  and  O4_31
REMARK                            x       y       z     vdW  Elec       q    Type
REMARK                         _______ _______ _______ _____ _____    ______ ____
ROOT
ATOM      6  C   UNL     1      45.017  19.443  19.207  0.00  0.00    +0.012 C 
ATOM      7  C   UNL     1      45.987  18.277  19.385  0.00  0.00    +0.095 C 
ATOM      8  C   UNL     1      47.404  18.722  19.130  0.00  0.00    -0.089 A 
ATOM      9  C   UNL     1      48.358  17.738  18.891  0.00  0.00    +0.068 A 
ATOM     10  C   UNL     1      49.659  18.081  18.656  0.00  0.00    -0.157 A 
ATOM     11  C   UNL     1      50.054  19.428  18.641  0.00  0.00    +0.137 A 
ATOM     12  O   UNL     1      51.334  19.771  18.357  0.00  0.00    -0.324 OA
ATOM     13  C   UNL     1      52.437  18.905  18.645  0.00  0.00    +0.273 C 
ATOM     14  C   UNL     1      51.924  17.656  19.317  0.00  0.00    -0.017 C 
ATOM     15  C   UNL     1      52.785  16.451  19.398  0.00  0.00    -0.163 A 
ATOM     16  C   UNL     1      54.128  16.274  19.643  0.00  0.00    +0.095 A 
ATOM     17  C   UNL     1      54.608  14.971  19.660  0.00  0.00    -0.034 A 
ATOM     18  C   UNL     1      53.769  13.891  19.441  0.00  0.00    +0.142 A 
ATOM     21  C   UNL     1      52.408  14.059  19.183  0.00  0.00    -0.011 A 
ATOM     22  C   UNL     1      51.919  15.359  19.159  0.00  0.00    +0.115 A 
ATOM     23  O   UNL     1      50.645  15.787  18.924  0.00  0.00    -0.278 OA
ATOM     24  C   UNL     1      49.100  20.397  18.893  0.00  0.00    -0.015 A 
ATOM     25  C   UNL     1      50.764  17.109  18.414  0.00  0.00    +0.224 C 
ATOM     26  C   UNL     1      47.779  20.047  19.135  0.00  0.00    -0.034 A 
ATOM     27  C   UNL     1      46.797  21.164  19.386  0.00  0.00    +0.056 C 
ATOM     28  C   UNL     1      45.526  20.626  20.040  0.00  0.00    +0.173 C 
ENDROOT
BRANCH  18  19
ATOM     19  O   UNL     1      54.286  12.635  19.474  0.00  0.00    -0.497 OA
ATOM     20  H   UNL     1      54.866  12.428  18.729  0.00  0.00    +0.396 HD
ENDBRANCH  18  19
BRANCH  28  29
ATOM     29  O   UNL     1      45.818  20.189  21.369  0.00  0.00    -0.557 OA
ATOM     30  H   UNL     1      46.644  20.541  21.726  0.00  0.00    +0.376 HD
ENDBRANCH  28  29
BRANCH   6   5
ATOM      5  C   UNL     1      43.625  19.033  19.691  0.00  0.00    +0.063 C 
BRANCH   5   4
ATOM      1  C   UNL     1      41.045  19.095  20.828  0.00  0.00    +0.072 C 
ATOM      2  C   UNL     1      41.393  20.024  19.693  0.00  0.00    -0.130 C 
ATOM      3  C   UNL     1      40.342  20.940  19.121  0.00  0.00    +0.070 C 
ATOM      4  C   UNL     1      42.609  20.034  19.204  0.00  0.00    -0.062 C 
ENDBRANCH   5   4
ENDBRANCH   6   5
TORSDOF 4
ENDMDL
MODEL 6
REMARK VINA RESULT:      -6.0      5.260      6.515
REMARK  Name = ZINC95486078
REMARK  6 active torsions:
REMARK  status: ('A' for Active; 'I' for Inactive)
REMARK    1  A    between atoms: C1_1  and  C2_2
REMARK    2  A    between atoms: C2_2  and  C24_32
REMARK    3  A    between atoms: C3_3  and  C4_4
REMARK    4  A    between atoms: C4_4  and  C5_5
REMARK    5  A    between atoms: C14_15  and  O1_17
REMARK    6  A    between atoms: C22_29  and  O4_31
REMARK                            x       y       z     vdW  Elec       q    Type
REMARK                         _______ _______ _______ _____ _____    ______ ____
ROOT
ATOM      6  C   UNL     1      42.887  19.031  20.885  0.00  0.00    +0.012 C 
ATOM      7  C   UNL     1      43.992  19.360  19.883  0.00  0.00    +0.095 C 
ATOM      8  C   UNL     1      45.343  19.302  20.546  0.00  0.00    -0.089 A 
ATOM      9  C   UNL     1      46.410  19.917  19.897  0.00  0.00    +0.068 A 
ATOM     10  C   UNL     1      47.658  19.895  20.448  0.00  0.00    -0.157 A 
ATOM     11  C   UNL     1      47.888  19.263  21.680  0.00  0.00    +0.137 A 
ATOM     12  O   UNL     1      49.115  19.286  22.253  0.00  0.00    -0.324 OA
ATOM     13  C   UNL     1      50.316  19.371  21.477  0.00  0.00    +0.273 C 
ATOM     14  C   UNL     1      49.959  19.383  20.012  0.00  0.00    -0.017 C 
ATOM     15  C   UNL     1      50.960  19.822  19.009  0.00  0.00    -0.163 A 
ATOM     16  C   UNL     1      52.316  19.613  18.885  0.00  0.00    +0.095 A 
ATOM     17  C   UNL     1      52.950  20.175  17.786  0.00  0.00    -0.034 A 
ATOM     18  C   UNL     1      52.248  20.915  16.848  0.00  0.00    +0.142 A 
ATOM     21  C   UNL     1      50.876  21.140  16.968  0.00  0.00    -0.011 A 
ATOM     22  C   UNL     1      50.233  20.586  18.068  0.00  0.00    +0.115 A 
ATOM     23  O   UNL     1      48.916  20.666  18.416  0.00  0.00    -0.278 OA
ATOM     24  C   UNL     1      46.823  18.643  22.311  0.00  0.00    -0.015 A 
ATOM     25  C   UNL     1      48.872  20.498  19.827  0.00  0.00    +0.224 C 
ATOM     26  C   UNL     1      45.554  18.664  21.748  0.00  0.00    -0.034 A 
ATOM     27  C   UNL     1      44.445  17.978  22.505  0.00  0.00    +0.056 C 
ATOM     28  C   UNL     1      43.250  17.719  21.590  0.00  0.00    +0.173 C 
ENDROOT
BRANCH  18  19
ATOM     19  O   UNL     1      52.914  21.438  15.786  0.00  0.00    -0.497 OA
ATOM     20  H   UNL     1      53.876  21.364  15.848  0.00  0.00    +0.396 HD
ENDBRANCH  18  19
BRANCH  28  29
ATOM     29  O   UNL     1      43.595  16.730  20.619  0.00  0.00    -0.557 OA
ATOM     30  H   UNL     1      43.203  16.880  19.748  0.00  0.00    +0.376 HD
ENDBRANCH  28  29
BRANCH   6   5
ATOM      5  C   UNL     1      41.555  18.869  20.149  0.00  0.00    +0.063 C 
BRANCH   5   4
ATOM      1  C   UNL     1      40.404  19.424  17.635  0.00  0.00    +0.072 C 
ATOM      2  C   UNL     1      40.483  20.502  18.685  0.00  0.00    -0.130 C 
ATOM      3  C   UNL     1      40.007  21.897  18.369  0.00  0.00    +0.070 C 
ATOM      4  C   UNL     1      40.965  20.227  19.872  0.00  0.00    -0.062 C 
ENDBRANCH   5   4
ENDBRANCH   6   5
TORSDOF 4
ENDMDL
MODEL 7
REMARK VINA RESULT:      -6.0      2.424      8.905
REMARK  Name = ZINC95486078
REMARK  6 active torsions:
REMARK  status: ('A' for Active; 'I' for Inactive)
REMARK    1  A    between atoms: C1_1  and  C2_2
REMARK    2  A    between atoms: C2_2  and  C24_32
REMARK    3  A    between atoms: C3_3  and  C4_4
REMARK    4  A    between atoms: C4_4  and  C5_5
REMARK    5  A    between atoms: C14_15  and  O1_17
REMARK    6  A    between atoms: C22_29  and  O4_31
REMARK                            x       y       z     vdW  Elec       q    Type
REMARK                         _______ _______ _______ _____ _____    ______ ____
ROOT
ATOM      6  C   UNL     1      49.318  12.170  16.279  0.00  0.00    +0.012 C 
ATOM      7  C   UNL     1      49.052  13.670  16.401  0.00  0.00    +0.095 C 
ATOM      8  C   UNL     1      47.992  13.938  17.437  0.00  0.00    -0.089 A 
ATOM      9  C   UNL     1      47.373  15.184  17.422  0.00  0.00    +0.068 A 
ATOM     10  C   UNL     1      46.407  15.485  18.339  0.00  0.00    -0.157 A 
ATOM     11  C   UNL     1      46.013  14.544  19.302  0.00  0.00    +0.137 A 
ATOM     12  O   UNL     1      45.018  14.824  20.178  0.00  0.00    -0.324 OA
ATOM     13  C   UNL     1      44.732  16.161  20.605  0.00  0.00    +0.273 C 
ATOM     14  C   UNL     1      45.718  17.106  19.965  0.00  0.00    -0.017 C 
ATOM     15  C   UNL     1      45.440  18.563  19.943  0.00  0.00    -0.163 A 
ATOM     16  C   UNL     1      44.901  19.428  20.869  0.00  0.00    +0.095 A 
ATOM     17  C   UNL     1      44.798  20.765  20.509  0.00  0.00    -0.034 A 
ATOM     18  C   UNL     1      45.219  21.212  19.268  0.00  0.00    +0.142 A 
ATOM     21  C   UNL     1      45.758  20.343  18.318  0.00  0.00    -0.011 A 
ATOM     22  C   UNL     1      45.861  19.002  18.667  0.00  0.00    +0.115 A 
ATOM     23  O   UNL     1      46.338  17.962  17.924  0.00  0.00    -0.278 OA
ATOM     24  C   UNL     1      46.644  13.313  19.316  0.00  0.00    -0.015 A 
ATOM     25  C   UNL     1      45.700  16.796  18.428  0.00  0.00    +0.224 C 
ATOM     26  C   UNL     1      47.628  13.009  18.386  0.00  0.00    -0.034 A 
ATOM     27  C   UNL     1      48.257  11.640  18.459  0.00  0.00    +0.056 C 
ATOM     28  C   UNL     1      49.572  11.609  17.684  0.00  0.00    +0.173 C 
ENDROOT
BRANCH  18  19
ATOM     19  O   UNL     1      45.102  22.531  18.965  0.00  0.00    -0.497 OA
ATOM     20  H   UNL     1      44.700  23.062  19.666  0.00  0.00    +0.396 HD
ENDBRANCH  18  19
BRANCH  28  29
ATOM     29  O   UNL     1      50.544  12.413  18.354  0.00  0.00    -0.557 OA
ATOM     30  H   UNL     1      50.388  13.364  18.279  0.00  0.00    +0.376 HD
ENDBRANCH  28  29
BRANCH   6   5
ATOM      5  C   UNL     1      50.547  11.935  15.399  0.00  0.00    +0.063 C 
BRANCH   5   4
ATOM      1  C   UNL     1      52.054  13.657  13.753  0.00  0.00    +0.072 C 
ATOM      2  C   UNL     1      50.837  12.960  13.203  0.00  0.00    -0.130 C 
ATOM      3  C   UNL     1      50.386  13.233  11.791  0.00  0.00    +0.070 C 
ATOM      4  C   UNL     1      50.172  12.115  13.952  0.00  0.00    -0.062 C 
ENDBRANCH   5   4
ENDBRANCH   6   5
TORSDOF 4
ENDMDL
MODEL 8
REMARK VINA RESULT:      -5.9      2.738      9.483
REMARK  Name = ZINC95486078
REMARK  6 active torsions:
REMARK  status: ('A' for Active; 'I' for Inactive)
REMARK    1  A    between atoms: C1_1  and  C2_2
REMARK    2  A    between atoms: C2_2  and  C24_32
REMARK    3  A    between atoms: C3_3  and  C4_4
REMARK    4  A    between atoms: C4_4  and  C5_5
REMARK    5  A    between atoms: C14_15  and  O1_17
REMARK    6  A    between atoms: C22_29  and  O4_31
REMARK                            x       y       z     vdW  Elec       q    Type
REMARK                         _______ _______ _______ _____ _____    ______ ____
ROOT
ATOM      6  C   UNL     1      49.931  11.386  14.337  0.00  0.00    +0.012 C 
ATOM      7  C   UNL     1      49.532  12.807  14.733  0.00  0.00    +0.095 C 
ATOM      8  C   UNL     1      48.534  12.783  15.860  0.00  0.00    -0.089 A 
ATOM      9  C   UNL     1      47.799  13.941  16.098  0.00  0.00    +0.068 A 
ATOM     10  C   UNL     1      46.880  13.979  17.108  0.00  0.00    -0.157 A 
ATOM     11  C   UNL     1      46.654  12.854  17.915  0.00  0.00    +0.137 A 
ATOM     12  O   UNL     1      45.706  12.875  18.883  0.00  0.00    -0.324 OA
ATOM     13  C   UNL     1      45.327  14.084  19.552  0.00  0.00    +0.273 C 
ATOM     14  C   UNL     1      46.165  15.223  19.028  0.00  0.00    -0.017 C 
ATOM     15  C   UNL     1      45.748  16.625  19.275  0.00  0.00    -0.163 A 
ATOM     16  C   UNL     1      45.201  17.261  20.368  0.00  0.00    +0.095 A 
ATOM     17  C   UNL     1      44.942  18.620  20.251  0.00  0.00    -0.034 A 
ATOM     18  C   UNL     1      45.222  19.310  19.083  0.00  0.00    +0.142 A 
ATOM     21  C   UNL     1      45.768  18.674  17.967  0.00  0.00    -0.011 A 
ATOM     22  C   UNL     1      46.026  17.313  18.072  0.00  0.00    +0.115 A 
ATOM     23  O   UNL     1      46.542  16.468  17.134  0.00  0.00    -0.278 OA
ATOM     24  C   UNL     1      47.400  11.713  17.679  0.00  0.00    -0.015 A 
ATOM     25  C   UNL     1      46.060  15.173  17.464  0.00  0.00    +0.224 C 
ATOM     26  C   UNL     1      48.335  11.676  16.654  0.00  0.00    -0.034 A 
ATOM     27  C   UNL     1      49.096  10.390  16.452  0.00  0.00    +0.056 C 
ATOM     28  C   UNL     1      50.344  10.630  15.606  0.00  0.00    +0.173 C 
ENDROOT
BRANCH  18  19
ATOM     19  O   UNL     1      44.956  20.641  19.021  0.00  0.00    -0.497 OA
ATOM     20  H   UNL     1      45.730  21.189  18.831  0.00  0.00    +0.396 HD
ENDBRANCH  18  19
BRANCH  28  29
ATOM     29  O   UNL     1      51.283  11.411  16.347  0.00  0.00    -0.557 OA
ATOM     30  H   UNL     1      51.019  12.333  16.469  0.00  0.00    +0.376 HD
ENDBRANCH  28  29
BRANCH   6   5
ATOM      5  C   UNL     1      51.106  11.434  13.359  0.00  0.00    +0.063 C 
BRANCH   5   4
ATOM      1  C   UNL     1      51.514  11.109  10.588  0.00  0.00    +0.072 C 
ATOM      2  C   UNL     1      51.185  12.468  11.149  0.00  0.00    -0.130 C 
ATOM      3  C   UNL     1      51.139  13.668  10.238  0.00  0.00    +0.070 C 
ATOM      4  C   UNL     1      50.939  12.607  12.429  0.00  0.00    -0.062 C 
ENDBRANCH   5   4
ENDBRANCH   6   5
TORSDOF 4
ENDMDL
MODEL 9
REMARK VINA RESULT:      -5.8     22.255     24.937
REMARK  Name = ZINC95486078
REMARK  6 active torsions:
REMARK  status: ('A' for Active; 'I' for Inactive)
REMARK    1  A    between atoms: C1_1  and  C2_2
REMARK    2  A    between atoms: C2_2  and  C24_32
REMARK    3  A    between atoms: C3_3  and  C4_4
REMARK    4  A    between atoms: C4_4  and  C5_5
REMARK    5  A    between atoms: C14_15  and  O1_17
REMARK    6  A    between atoms: C22_29  and  O4_31
REMARK                            x       y       z     vdW  Elec       q    Type
REMARK                         _______ _______ _______ _____ _____    ______ ____
ROOT
ATOM      6  C   UNL     1      51.171  34.633   3.987  0.00  0.00    +0.012 C 
ATOM      7  C   UNL     1      49.685  34.307   4.128  0.00  0.00    +0.095 C 
ATOM      8  C   UNL     1      48.964  34.546   2.828  0.00  0.00    -0.089 A 
ATOM      9  C   UNL     1      47.577  34.653   2.867  0.00  0.00    +0.068 A 
ATOM     10  C   UNL     1      46.869  34.868   1.720  0.00  0.00    -0.157 A 
ATOM     11  C   UNL     1      47.524  34.995   0.485  0.00  0.00    +0.137 A 
ATOM     12  O   UNL     1      46.826  35.259  -0.645  0.00  0.00    -0.324 OA
ATOM     13  C   UNL     1      45.466  34.846  -0.815  0.00  0.00    +0.273 C 
ATOM     14  C   UNL     1      45.025  34.080   0.407  0.00  0.00    -0.017 C 
ATOM     15  C   UNL     1      43.580  33.851   0.656  0.00  0.00    -0.163 A 
ATOM     16  C   UNL     1      42.525  33.537  -0.171  0.00  0.00    +0.095 A 
ATOM     17  C   UNL     1      41.278  33.378   0.418  0.00  0.00    -0.034 A 
ATOM     18  C   UNL     1      41.101  33.527   1.783  0.00  0.00    +0.142 A 
ATOM     21  C   UNL     1      42.162  33.852   2.630  0.00  0.00    -0.011 A 
ATOM     22  C   UNL     1      43.413  34.019   2.050  0.00  0.00    +0.115 A 
ATOM     23  O   UNL     1      44.594  34.345   2.648  0.00  0.00    -0.278 OA
ATOM     24  C   UNL     1      48.902  34.873   0.456  0.00  0.00    -0.015 A 
ATOM     25  C   UNL     1      45.383  34.972   1.646  0.00  0.00    +0.224 C 
ATOM     26  C   UNL     1      49.621  34.653   1.622  0.00  0.00    -0.034 A 
ATOM     27  C   UNL     1      51.120  34.547   1.507  0.00  0.00    +0.056 C 
ATOM     28  C   UNL     1      51.712  33.896   2.756  0.00  0.00    +0.173 C 
ENDROOT
BRANCH  18  19
ATOM     19  O   UNL     1      39.862  33.354   2.313  0.00  0.00    -0.497 OA
ATOM     20  H   UNL     1      39.584  32.429   2.370  0.00  0.00    +0.396 HD
ENDBRANCH  18  19
BRANCH  28  29
ATOM     29  O   UNL     1      51.326  32.522   2.809  0.00  0.00    -0.557 OA
ATOM     30  H   UNL     1      51.644  31.995   2.064  0.00  0.00    +0.376 HD
ENDBRANCH  28  29
BRANCH   6   5
ATOM      5  C   UNL     1      51.922  34.168   5.237  0.00  0.00    +0.063 C 
BRANCH   5   4
ATOM      1  C   UNL     1      53.713  32.026   5.631  0.00  0.00    +0.072 C 
ATOM      2  C   UNL     1      54.237  33.395   5.280  0.00  0.00    -0.130 C 
ATOM      3  C   UNL     1      55.723  33.636   5.204  0.00  0.00    +0.070 C 
ATOM      4  C   UNL     1      53.401  34.376   5.040  0.00  0.00    -0.062 C 
ENDBRANCH   5   4
ENDBRANCH   6   5
TORSDOF 4
ENDMDL
