MODEL 1
REMARK VINA RESULT:      -5.1      0.000      0.000
REMARK  Name = ZINC14590768
REMARK  4 active torsions:
REMARK  status: ('A' for Active; 'I' for Inactive)
REMARK    1  A    between atoms: C1_1  and  C2_2
REMARK    2  A    between atoms: C2_2  and  C13_15
REMARK    3  A    between atoms: C3_3  and  C4_4
REMARK    4  A    between atoms: C4_4  and  C5_5
REMARK                            x       y       z     vdW  Elec       q    Type
REMARK                         _______ _______ _______ _____ _____    ______ ____
ROOT
ATOM      6  C   UNL     1      47.943  20.728  19.612  0.00  0.00    -0.053 A 
ATOM      7  C   UNL     1      48.065  21.358  20.842  0.00  0.00    -0.020 A 
ATOM      8  C   UNL     1      47.025  22.077  21.360  0.00  0.00    +0.054 A 
ATOM      9  C   UNL     1      45.829  22.181  20.646  0.00  0.00    -0.115 A 
ATOM     10  C   UNL     1      44.550  22.850  20.892  0.00  0.00    -0.059 A 
ATOM     11  C   UNL     1      43.765  22.598  19.833  0.00  0.00    +0.219 A 
ATOM     12  N   UNL     1      44.434  21.814  18.932  0.00  0.00    -0.598 N 
ATOM     13  H   UNL     1      44.071  21.500  18.089  0.00  0.00    +0.415 HD
ATOM     14  C   UNL     1      45.701  21.544  19.397  0.00  0.00    +0.097 A 
ATOM     15  C   UNL     1      46.773  20.817  18.890  0.00  0.00    -0.010 A 
ENDROOT
BRANCH   6   5
ATOM      5  C   UNL     1      49.102  19.939  19.059  0.00  0.00    +0.108 C 
BRANCH   5   4
ATOM      1  C   UNL     1      51.124  21.164  17.528  0.00  0.00    +0.072 C 
ATOM      2  C   UNL     1      51.319  20.962  19.009  0.00  0.00    -0.133 C 
ATOM      3  C   UNL     1      52.595  21.415  19.670  0.00  0.00    +0.072 C 
ATOM      4  C   UNL     1      50.378  20.392  19.721  0.00  0.00    -0.048 C 
ENDBRANCH   5   4
ENDBRANCH   6   5
TORSDOF 2
ENDMDL
MODEL 2
REMARK VINA RESULT:      -5.1      1.190      2.044
REMARK  Name = ZINC14590768
REMARK  4 active torsions:
REMARK  status: ('A' for Active; 'I' for Inactive)
REMARK    1  A    between atoms: C1_1  and  C2_2
REMARK    2  A    between atoms: C2_2  and  C13_15
REMARK    3  A    between atoms: C3_3  and  C4_4
REMARK    4  A    between atoms: C4_4  and  C5_5
REMARK                            x       y       z     vdW  Elec       q    Type
REMARK                         _______ _______ _______ _____ _____    ______ ____
ROOT
ATOM      6  C   UNL     1      48.121  20.790  19.882  0.00  0.00    -0.053 A 
ATOM      7  C   UNL     1      47.217  20.639  18.840  0.00  0.00    -0.020 A 
ATOM      8  C   UNL     1      45.966  21.182  18.922  0.00  0.00    +0.054 A 
ATOM      9  C   UNL     1      45.591  21.893  20.064  0.00  0.00    -0.115 A 
ATOM     10  C   UNL     1      44.369  22.586  20.477  0.00  0.00    -0.059 A 
ATOM     11  C   UNL     1      44.597  23.089  21.700  0.00  0.00    +0.219 A 
ATOM     12  N   UNL     1      45.870  22.782  22.101  0.00  0.00    -0.598 N 
ATOM     13  H   UNL     1      46.264  23.040  22.949  0.00  0.00    +0.415 HD
ATOM     14  C   UNL     1      46.504  22.047  21.124  0.00  0.00    +0.097 A 
ATOM     15  C   UNL     1      47.772  21.487  21.019  0.00  0.00    -0.010 A 
ENDROOT
BRANCH   6   5
ATOM      5  C   UNL     1      49.496  20.184  19.772  0.00  0.00    +0.108 C 
BRANCH   5   4
ATOM      1  C   UNL     1      51.957  21.456  19.265  0.00  0.00    +0.072 C 
ATOM      2  C   UNL     1      51.139  20.917  18.121  0.00  0.00    -0.133 C 
ATOM      3  C   UNL     1      51.637  21.058  16.706  0.00  0.00    +0.072 C 
ATOM      4  C   UNL     1      49.994  20.325  18.357  0.00  0.00    -0.048 C 
ENDBRANCH   5   4
ENDBRANCH   6   5
TORSDOF 2
ENDMDL
MODEL 3
REMARK VINA RESULT:      -5.0      1.505      2.492
REMARK  Name = ZINC14590768
REMARK  4 active torsions:
REMARK  status: ('A' for Active; 'I' for Inactive)
REMARK    1  A    between atoms: C1_1  and  C2_2
REMARK    2  A    between atoms: C2_2  and  C13_15
REMARK    3  A    between atoms: C3_3  and  C4_4
REMARK    4  A    between atoms: C4_4  and  C5_5
REMARK                            x       y       z     vdW  Elec       q    Type
REMARK                         _______ _______ _______ _____ _____    ______ ____
ROOT
ATOM      6  C   UNL     1      46.862  20.566  19.504  0.00  0.00    -0.053 A 
ATOM      7  C   UNL     1      46.533  19.466  18.723  0.00  0.00    -0.020 A 
ATOM      8  C   UNL     1      45.235  19.228  18.372  0.00  0.00    +0.054 A 
ATOM      9  C   UNL     1      44.229  20.097  18.801  0.00  0.00    -0.115 A 
ATOM     10  C   UNL     1      42.777  20.144  18.617  0.00  0.00    -0.059 A 
ATOM     11  C   UNL     1      42.332  21.225  19.277  0.00  0.00    +0.219 A 
ATOM     12  N   UNL     1      43.383  21.879  19.862  0.00  0.00    -0.598 N 
ATOM     13  H   UNL     1      43.310  22.689  20.391  0.00  0.00    +0.415 HD
ATOM     14  C   UNL     1      44.557  21.213  19.593  0.00  0.00    +0.097 A 
ATOM     15  C   UNL     1      45.886  21.436  19.939  0.00  0.00    -0.010 A 
ENDROOT
BRANCH   6   5
ATOM      5  C   UNL     1      48.300  20.811  19.880  0.00  0.00    +0.108 C 
BRANCH   5   4
ATOM      1  C   UNL     1      51.110  20.877  20.070  0.00  0.00    +0.072 C 
ATOM      2  C   UNL     1      50.445  20.930  18.719  0.00  0.00    -0.133 C 
ATOM      3  C   UNL     1      51.283  21.018  17.469  0.00  0.00    +0.072 C 
ATOM      4  C   UNL     1      49.138  20.899  18.631  0.00  0.00    -0.048 C 
ENDBRANCH   5   4
ENDBRANCH   6   5
TORSDOF 2
ENDMDL
MODEL 4
REMARK VINA RESULT:      -5.0      4.729      5.948
REMARK  Name = ZINC14590768
REMARK  4 active torsions:
REMARK  status: ('A' for Active; 'I' for Inactive)
REMARK    1  A    between atoms: C1_1  and  C2_2
REMARK    2  A    between atoms: C2_2  and  C13_15
REMARK    3  A    between atoms: C3_3  and  C4_4
REMARK    4  A    between atoms: C4_4  and  C5_5
REMARK                            x       y       z     vdW  Elec       q    Type
REMARK                         _______ _______ _______ _____ _____    ______ ____
ROOT
ATOM      6  C   UNL     1      43.439  18.800  20.915  0.00  0.00    -0.053 A 
ATOM      7  C   UNL     1      42.197  18.382  21.371  0.00  0.00    -0.020 A 
ATOM      8  C   UNL     1      41.054  18.974  20.913  0.00  0.00    +0.054 A 
ATOM      9  C   UNL     1      41.135  20.010  19.980  0.00  0.00    -0.115 A 
ATOM     10  C   UNL     1      40.144  20.845  19.296  0.00  0.00    -0.059 A 
ATOM     11  C   UNL     1      40.823  21.689  18.504  0.00  0.00    +0.219 A 
ATOM     12  N   UNL     1      42.167  21.458  18.618  0.00  0.00    -0.598 N 
ATOM     13  H   UNL     1      42.858  21.942  18.140  0.00  0.00    +0.415 HD
ATOM     14  C   UNL     1      42.392  20.439  19.516  0.00  0.00    +0.097 A 
ATOM     15  C   UNL     1      43.542  19.822  19.995  0.00  0.00    -0.010 A 
ENDROOT
BRANCH   6   5
ATOM      5  C   UNL     1      44.687  18.134  21.433  0.00  0.00    +0.108 C 
BRANCH   5   4
ATOM      1  C   UNL     1      46.056  17.017  19.239  0.00  0.00    +0.072 C 
ATOM      2  C   UNL     1      45.246  16.132  20.150  0.00  0.00    -0.133 C 
ATOM      3  C   UNL     1      45.169  14.650  19.889  0.00  0.00    +0.072 C 
ATOM      4  C   UNL     1      44.610  16.652  21.171  0.00  0.00    -0.048 C 
ENDBRANCH   5   4
ENDBRANCH   6   5
TORSDOF 2
ENDMDL
MODEL 5
REMARK VINA RESULT:      -4.9     19.024     20.131
REMARK  Name = ZINC14590768
REMARK  4 active torsions:
REMARK  status: ('A' for Active; 'I' for Inactive)
REMARK    1  A    between atoms: C1_1  and  C2_2
REMARK    2  A    between atoms: C2_2  and  C13_15
REMARK    3  A    between atoms: C3_3  and  C4_4
REMARK    4  A    between atoms: C4_4  and  C5_5
REMARK                            x       y       z     vdW  Elec       q    Type
REMARK                         _______ _______ _______ _____ _____    ______ ____
ROOT
ATOM      6  C   UNL     1      55.684  33.135   5.127  0.00  0.00    -0.053 A 
ATOM      7  C   UNL     1      54.599  32.386   4.693  0.00  0.00    -0.020 A 
ATOM      8  C   UNL     1      53.341  32.659   5.148  0.00  0.00    +0.054 A 
ATOM      9  C   UNL     1      53.142  33.699   6.058  0.00  0.00    -0.115 A 
ATOM     10  C   UNL     1      51.966  34.251   6.734  0.00  0.00    -0.059 A 
ATOM     11  C   UNL     1      52.395  35.258   7.510  0.00  0.00    +0.219 A 
ATOM     12  N   UNL     1      53.750  35.401   7.381  0.00  0.00    -0.598 N 
ATOM     13  H   UNL     1      54.287  36.065   7.843  0.00  0.00    +0.415 HD
ATOM     14  C   UNL     1      54.239  34.461   6.502  0.00  0.00    +0.097 A 
ATOM     15  C   UNL     1      55.512  34.165   6.026  0.00  0.00    -0.010 A 
ENDROOT
BRANCH   6   5
ATOM      5  C   UNL     1      57.064  32.818   4.613  0.00  0.00    +0.108 C 
BRANCH   5   4
ATOM      1  C   UNL     1      58.901  30.710   4.267  0.00  0.00    +0.072 C 
ATOM      2  C   UNL     1      57.811  30.934   3.250  0.00  0.00    -0.133 C 
ATOM      3  C   UNL     1      57.704  30.030   2.049  0.00  0.00    +0.072 C 
ATOM      4  C   UNL     1      56.957  31.914   3.412  0.00  0.00    -0.048 C 
ENDBRANCH   5   4
ENDBRANCH   6   5
TORSDOF 2
ENDMDL
MODEL 6
REMARK VINA RESULT:      -4.7     18.639     20.971
REMARK  Name = ZINC14590768
REMARK  4 active torsions:
REMARK  status: ('A' for Active; 'I' for Inactive)
REMARK    1  A    between atoms: C1_1  and  C2_2
REMARK    2  A    between atoms: C2_2  and  C13_15
REMARK    3  A    between atoms: C3_3  and  C4_4
REMARK    4  A    between atoms: C4_4  and  C5_5
REMARK                            x       y       z     vdW  Elec       q    Type
REMARK                         _______ _______ _______ _____ _____    ______ ____
ROOT
ATOM      6  C   UNL     1      55.707  33.190   5.340  0.00  0.00    -0.053 A 
ATOM      7  C   UNL     1      57.066  33.308   5.596  0.00  0.00    -0.020 A 
ATOM      8  C   UNL     1      57.981  32.719   4.769  0.00  0.00    +0.054 A 
ATOM      9  C   UNL     1      57.547  31.992   3.659  0.00  0.00    -0.115 A 
ATOM     10  C   UNL     1      58.230  31.253   2.595  0.00  0.00    -0.059 A 
ATOM     11  C   UNL     1      57.278  30.747   1.795  0.00  0.00    +0.219 A 
ATOM     12  N   UNL     1      56.041  31.110   2.255  0.00  0.00    -0.598 N 
ATOM     13  H   UNL     1      55.199  30.865   1.841  0.00  0.00    +0.415 HD
ATOM     14  C   UNL     1      56.170  31.869   3.396  0.00  0.00    +0.097 A 
ATOM     15  C   UNL     1      55.256  32.477   4.251  0.00  0.00    -0.010 A 
ENDROOT
BRANCH   6   5
ATOM      5  C   UNL     1      54.714  33.847   6.264  0.00  0.00    +0.108 C 
BRANCH   5   4
ATOM      1  C   UNL     1      52.422  35.110   7.305  0.00  0.00    +0.072 C 
ATOM      2  C   UNL     1      52.289  33.815   6.546  0.00  0.00    -0.133 C 
ATOM      3  C   UNL     1      50.930  33.196   6.344  0.00  0.00    +0.072 C 
ATOM      4  C   UNL     1      53.355  33.228   6.062  0.00  0.00    -0.048 C 
ENDBRANCH   5   4
ENDBRANCH   6   5
TORSDOF 2
ENDMDL
MODEL 7
REMARK VINA RESULT:      -4.6      2.631      6.142
REMARK  Name = ZINC14590768
REMARK  4 active torsions:
REMARK  status: ('A' for Active; 'I' for Inactive)
REMARK    1  A    between atoms: C1_1  and  C2_2
REMARK    2  A    between atoms: C2_2  and  C13_15
REMARK    3  A    between atoms: C3_3  and  C4_4
REMARK    4  A    between atoms: C4_4  and  C5_5
REMARK                            x       y       z     vdW  Elec       q    Type
REMARK                         _______ _______ _______ _____ _____    ______ ____
ROOT
ATOM      6  C   UNL     1      49.403  20.077  19.102  0.00  0.00    -0.053 A 
ATOM      7  C   UNL     1      50.175  21.185  18.782  0.00  0.00    -0.020 A 
ATOM      8  C   UNL     1      51.118  21.114  17.797  0.00  0.00    +0.054 A 
ATOM      9  C   UNL     1      51.309  19.916  17.105  0.00  0.00    -0.115 A 
ATOM     10  C   UNL     1      52.203  19.495  16.024  0.00  0.00    -0.059 A 
ATOM     11  C   UNL     1      51.933  18.206  15.769  0.00  0.00    +0.219 A 
ATOM     12  N   UNL     1      50.931  17.768  16.593  0.00  0.00    -0.598 N 
ATOM     13  H   UNL     1      50.562  16.871  16.594  0.00  0.00    +0.415 HD
ATOM     14  C   UNL     1      50.530  18.789  17.425  0.00  0.00    +0.097 A 
ATOM     15  C   UNL     1      49.575  18.884  18.432  0.00  0.00    -0.010 A 
ENDROOT
BRANCH   6   5
ATOM      5  C   UNL     1      48.368  20.177  20.192  0.00  0.00    +0.108 C 
BRANCH   5   4
ATOM      1  C   UNL     1      46.807  22.272  21.245  0.00  0.00    +0.072 C 
ATOM      2  C   UNL     1      46.301  21.472  20.073  0.00  0.00    -0.133 C 
ATOM      3  C   UNL     1      44.960  21.793  19.464  0.00  0.00    +0.072 C 
ATOM      4  C   UNL     1      47.027  20.498  19.583  0.00  0.00    -0.048 C 
ENDBRANCH   5   4
ENDBRANCH   6   5
TORSDOF 2
ENDMDL
MODEL 8
REMARK VINA RESULT:      -4.6      4.657      7.153
REMARK  Name = ZINC14590768
REMARK  4 active torsions:
REMARK  status: ('A' for Active; 'I' for Inactive)
REMARK    1  A    between atoms: C1_1  and  C2_2
REMARK    2  A    between atoms: C2_2  and  C13_15
REMARK    3  A    between atoms: C3_3  and  C4_4
REMARK    4  A    between atoms: C4_4  and  C5_5
REMARK                            x       y       z     vdW  Elec       q    Type
REMARK                         _______ _______ _______ _____ _____    ______ ____
ROOT
ATOM      6  C   UNL     1      44.158  19.083  19.696  0.00  0.00    -0.053 A 
ATOM      7  C   UNL     1      44.151  17.962  20.514  0.00  0.00    -0.020 A 
ATOM      8  C   UNL     1      44.878  16.855  20.180  0.00  0.00    +0.054 A 
ATOM      9  C   UNL     1      45.634  16.849  19.006  0.00  0.00    -0.115 A 
ATOM     10  C   UNL     1      46.504  15.864  18.359  0.00  0.00    -0.059 A 
ATOM     11  C   UNL     1      46.962  16.426  17.229  0.00  0.00    +0.219 A 
ATOM     12  N   UNL     1      46.462  17.694  17.104  0.00  0.00    -0.598 N 
ATOM     13  H   UNL     1      46.654  18.298  16.369  0.00  0.00    +0.415 HD
ATOM     14  C   UNL     1      45.644  17.983  18.172  0.00  0.00    +0.097 A 
ATOM     15  C   UNL     1      44.896  19.099  18.532  0.00  0.00    -0.010 A 
ENDROOT
BRANCH   6   5
ATOM      5  C   UNL     1      43.349  20.295  20.082  0.00  0.00    +0.108 C 
BRANCH   5   4
ATOM      1  C   UNL     1      42.123  22.568  18.958  0.00  0.00    +0.072 C 
ATOM      2  C   UNL     1      41.400  21.246  18.962  0.00  0.00    -0.133 C 
ATOM      3  C   UNL     1      40.020  21.140  18.364  0.00  0.00    +0.072 C 
ATOM      4  C   UNL     1      41.970  20.189  19.484  0.00  0.00    -0.048 C 
ENDBRANCH   5   4
ENDBRANCH   6   5
TORSDOF 2
ENDMDL
MODEL 9
REMARK VINA RESULT:      -4.5     22.372     23.920
REMARK  Name = ZINC14590768
REMARK  4 active torsions:
REMARK  status: ('A' for Active; 'I' for Inactive)
REMARK    1  A    between atoms: C1_1  and  C2_2
REMARK    2  A    between atoms: C2_2  and  C13_15
REMARK    3  A    between atoms: C3_3  and  C4_4
REMARK    4  A    between atoms: C4_4  and  C5_5
REMARK                            x       y       z     vdW  Elec       q    Type
REMARK                         _______ _______ _______ _____ _____    ______ ____
ROOT
ATOM      6  C   UNL     1      42.132  32.415   0.544  0.00  0.00    -0.053 A 
ATOM      7  C   UNL     1      42.448  31.375   1.407  0.00  0.00    -0.020 A 
ATOM      8  C   UNL     1      42.758  30.138   0.917  0.00  0.00    +0.054 A 
ATOM      9  C   UNL     1      42.756  29.916  -0.461  0.00  0.00    -0.115 A 
ATOM     10  C   UNL     1      43.030  28.751  -1.307  0.00  0.00    -0.059 A 
ATOM     11  C   UNL     1      42.863  29.142  -2.580  0.00  0.00    +0.219 A 
ATOM     12  N   UNL     1      42.512  30.464  -2.619  0.00  0.00    -0.598 N 
ATOM     13  H   UNL     1      42.340  30.971  -3.429  0.00  0.00    +0.415 HD
ATOM     14  C   UNL     1      42.435  30.967  -1.340  0.00  0.00    +0.097 A 
ATOM     15  C   UNL     1      42.122  32.219  -0.820  0.00  0.00    -0.010 A 
ENDROOT
BRANCH   6   5
ATOM      5  C   UNL     1      41.793  33.772   1.104  0.00  0.00    +0.108 C 
BRANCH   5   4
ATOM      1  C   UNL     1      39.019  33.806   1.594  0.00  0.00    +0.072 C 
ATOM      2  C   UNL     1      39.579  34.506   0.382  0.00  0.00    -0.133 C 
ATOM      3  C   UNL     1      38.654  35.224  -0.567  0.00  0.00    +0.072 C 
ATOM      4  C   UNL     1      40.868  34.490   0.155  0.00  0.00    -0.048 C 
ENDBRANCH   5   4
ENDBRANCH   6   5
TORSDOF 2
ENDMDL
