MODEL 1
REMARK VINA RESULT:      -7.0      0.000      0.000
REMARK  Name = ZINC95486158
REMARK  14 active torsions:
REMARK  status: ('A' for Active; 'I' for Inactive)
REMARK    1  A    between atoms: C1_1  and  C2_2
REMARK    2  A    between atoms: C2_2  and  C3_4
REMARK    3  A    between atoms: C3_4  and  C4_5
REMARK    4  A    between atoms: C9_11  and  O3_15
REMARK    5  A    between atoms: C10_12  and  O2_13
REMARK    6  A    between atoms: O2_13  and  C11_14
REMARK    7  A    between atoms: O3_15  and  C12_16
REMARK    8  A    between atoms: C18_22  and  O5_35
REMARK    9  A    between atoms: C19_23  and  O4_34
REMARK   10  A    between atoms: C20_24  and  C24_29
REMARK   11  A    between atoms: N1_27  and  C23_28
REMARK   12  A    between atoms: C24_29  and  C25_30
REMARK   13  A    between atoms: C24_29  and  C26_31
REMARK   14  A    between atoms: C24_29  and  C27_32
REMARK                            x       y       z     vdW  Elec       q    Type
REMARK                         _______ _______ _______ _____ _____    ______ ____
ROOT
ATOM      4  C   UNL     1      46.279  18.615  20.357  0.00  0.00    +0.324 C 
ATOM      5  C   UNL     1      45.962  17.333  21.085  0.00  0.00    -0.084 A 
ATOM      6  C   UNL     1      44.643  17.048  21.446  0.00  0.00    +0.007 A 
ATOM      7  C   UNL     1      43.560  17.992  21.082  0.00  0.00    -0.013 A 
ATOM      8  C   UNL     1      42.253  17.784  21.542  0.00  0.00    +0.040 A 
ATOM      9  C   UNL     1      41.235  18.573  21.111  0.00  0.00    -0.005 A 
ATOM     10  C   UNL     1      41.507  19.654  20.258  0.00  0.00    -0.033 A 
ATOM     11  C   UNL     1      40.475  20.351  19.608  0.00  0.00    +0.010 A 
ATOM     12  C   UNL     1      40.760  21.519  18.962  0.00  0.00    +0.085 A 
ATOM     15  C   UNL     1      42.059  22.044  18.994  0.00  0.00    +0.076 A 
ATOM     18  C   UNL     1      43.087  21.337  19.560  0.00  0.00    -0.057 A 
ATOM     24  C   UNL     1      42.860  20.031  20.009  0.00  0.00    -0.057 A 
ATOM     25  C   UNL     1      43.851  19.063  20.234  0.00  0.00    +0.213 A 
ATOM     26  C   UNL     1      44.353  15.870  22.129  0.00  0.00    +0.041 A 
ATOM     27  C   UNL     1      45.365  14.983  22.444  0.00  0.00    -0.054 A 
ATOM     28  C   UNL     1      46.672  15.263  22.078  0.00  0.00    +0.099 A 
ATOM     31  C   UNL     1      46.970  16.441  21.396  0.00  0.00    +0.075 A 
ATOM     34  N   UNL     1      45.092  19.054  19.614  0.00  0.00    -0.627 N 
ATOM     35  C   UNL     1      45.231  19.389  18.191  0.00  0.00    +0.300 C 
ENDROOT
BRANCH  18  19
ATOM     19  C   UNL     1      44.404  22.041  19.763  0.00  0.00    +0.024 C 
ATOM     22  C   UNL     1      44.204  23.551  19.620  0.00  0.00    +0.048 C 
ATOM     23  C   UNL     1      45.408  21.558  18.714  0.00  0.00    +0.034 C 
BRANCH  19  20
ATOM     20  C   UNL     1      44.931  21.734  21.142  0.00  0.00    -0.046 C 
ATOM     21  C   UNL     1      44.782  22.605  22.109  0.00  0.00    +0.012 C 
ENDBRANCH  19  20
ENDBRANCH  18  19
BRANCH  12  13
ATOM     13  O   UNL     1      39.781  22.174  18.286  0.00  0.00    -0.487 OA
ATOM     14  H   UNL     1      40.011  22.387  17.371  0.00  0.00    +0.385 HD
ENDBRANCH  12  13
BRANCH  15  16
ATOM     16  O   UNL     1      42.307  23.269  18.459  0.00  0.00    -0.480 OA
ATOM     17  H   UNL     1      42.457  23.257  17.504  0.00  0.00    +0.379 HD
ENDBRANCH  15  16
BRANCH  28  29
ATOM     29  O   UNL     1      47.666  14.387  22.386  0.00  0.00    -0.308 OA
ATOM     30  C   UNL     1      47.584  13.084  21.806  0.00  0.00    +0.238 C 
ENDBRANCH  28  29
BRANCH  31  32
ATOM     32  O   UNL     1      48.255  16.705  21.035  0.00  0.00    -0.322 OA
ATOM     33  C   UNL     1      48.706  16.157  19.794  0.00  0.00    +0.219 C 
ENDBRANCH  31  32
BRANCH   4   3
ATOM      3  C   UNL     1      46.682  19.688  21.371  0.00  0.00    +0.005 C 
BRANCH   3   2
ATOM      1  C   UNL     1      48.640  19.951  19.664  0.00  0.00    +0.049 C 
ATOM      2  C   UNL     1      48.050  20.216  21.026  0.00  0.00    +0.342 C 
ATOM     36  O   UNL     1      48.674  20.852  21.841  0.00  0.00    -0.431 OA
ENDBRANCH   3   2
ENDBRANCH   4   3
TORSDOF 8
ENDMDL
MODEL 2
REMARK VINA RESULT:      -5.9      3.071      7.376
REMARK  Name = ZINC95486158
REMARK  14 active torsions:
REMARK  status: ('A' for Active; 'I' for Inactive)
REMARK    1  A    between atoms: C1_1  and  C2_2
REMARK    2  A    between atoms: C2_2  and  C3_4
REMARK    3  A    between atoms: C3_4  and  C4_5
REMARK    4  A    between atoms: C9_11  and  O3_15
REMARK    5  A    between atoms: C10_12  and  O2_13
REMARK    6  A    between atoms: O2_13  and  C11_14
REMARK    7  A    between atoms: O3_15  and  C12_16
REMARK    8  A    between atoms: C18_22  and  O5_35
REMARK    9  A    between atoms: C19_23  and  O4_34
REMARK   10  A    between atoms: C20_24  and  C24_29
REMARK   11  A    between atoms: N1_27  and  C23_28
REMARK   12  A    between atoms: C24_29  and  C25_30
REMARK   13  A    between atoms: C24_29  and  C26_31
REMARK   14  A    between atoms: C24_29  and  C27_32
REMARK                            x       y       z     vdW  Elec       q    Type
REMARK                         _______ _______ _______ _____ _____    ______ ____
ROOT
ATOM      4  C   UNL     1      46.865  16.968  19.393  0.00  0.00    +0.324 C 
ATOM      5  C   UNL     1      46.251  18.004  20.300  0.00  0.00    -0.084 A 
ATOM      6  C   UNL     1      46.865  19.249  20.447  0.00  0.00    +0.007 A 
ATOM      7  C   UNL     1      48.100  19.555  19.686  0.00  0.00    -0.013 A 
ATOM      8  C   UNL     1      48.797  20.749  19.915  0.00  0.00    +0.040 A 
ATOM      9  C   UNL     1      49.855  21.091  19.134  0.00  0.00    -0.005 A 
ATOM     10  C   UNL     1      50.302  20.205  18.142  0.00  0.00    -0.033 A 
ATOM     11  C   UNL     1      51.233  20.605  17.169  0.00  0.00    +0.010 A 
ATOM     12  C   UNL     1      51.799  19.665  16.359  0.00  0.00    +0.085 A 
ATOM     15  C   UNL     1      51.495  18.308  16.532  0.00  0.00    +0.076 A 
ATOM     18  C   UNL     1      50.535  17.914  17.426  0.00  0.00    -0.057 A 
ATOM     24  C   UNL     1      49.772  18.882  18.088  0.00  0.00    -0.057 A 
ATOM     25  C   UNL     1      48.530  18.660  18.703  0.00  0.00    +0.213 A 
ATOM     26  C   UNL     1      46.304  20.201  21.294  0.00  0.00    +0.041 A 
ATOM     27  C   UNL     1      45.140  19.917  21.983  0.00  0.00    -0.054 A 
ATOM     28  C   UNL     1      44.527  18.684  21.829  0.00  0.00    +0.099 A 
ATOM     31  C   UNL     1      45.083  17.726  20.985  0.00  0.00    +0.075 A 
ATOM     34  N   UNL     1      47.654  17.641  18.356  0.00  0.00    -0.627 N 
ATOM     35  C   UNL     1      47.429  17.283  16.949  0.00  0.00    +0.300 C 
ENDROOT
BRANCH  18  19
ATOM     19  C   UNL     1      50.409  16.443  17.729  0.00  0.00    +0.024 C 
ATOM     22  C   UNL     1      51.654  15.710  17.227  0.00  0.00    +0.048 C 
ATOM     23  C   UNL     1      49.169  15.882  17.029  0.00  0.00    +0.034 C 
BRANCH  19  20
ATOM     20  C   UNL     1      50.277  16.247  19.218  0.00  0.00    -0.046 C 
ATOM     21  C   UNL     1      51.349  16.213  19.971  0.00  0.00    +0.012 C 
ENDBRANCH  19  20
ENDBRANCH  18  19
BRANCH  12  13
ATOM     13  O   UNL     1      52.660  20.046  15.380  0.00  0.00    -0.487 OA
ATOM     14  H   UNL     1      52.852  19.354  14.733  0.00  0.00    +0.385 HD
ENDBRANCH  12  13
BRANCH  15  16
ATOM     16  O   UNL     1      52.159  17.368  15.808  0.00  0.00    -0.480 OA
ATOM     17  H   UNL     1      52.405  16.584  16.316  0.00  0.00    +0.379 HD
ENDBRANCH  15  16
BRANCH  28  29
ATOM     29  O   UNL     1      43.379  18.409  22.505  0.00  0.00    -0.308 OA
ATOM     30  C   UNL     1      42.156  18.861  21.920  0.00  0.00    +0.238 C 
ENDBRANCH  28  29
BRANCH  31  32
ATOM     32  O   UNL     1      44.470  16.520  20.835  0.00  0.00    -0.322 OA
ATOM     33  C   UNL     1      44.534  15.619  21.942  0.00  0.00    +0.219 C 
ENDBRANCH  31  32
BRANCH   4   3
ATOM      3  C   UNL     1      47.768  16.046  20.214  0.00  0.00    +0.005 C 
BRANCH   3   2
ATOM      1  C   UNL     1      46.375  14.259  18.918  0.00  0.00    +0.049 C 
ATOM      2  C   UNL     1      47.329  14.617  20.029  0.00  0.00    +0.342 C 
ATOM     36  O   UNL     1      47.742  13.757  20.769  0.00  0.00    -0.431 OA
ENDBRANCH   3   2
ENDBRANCH   4   3
TORSDOF 8
ENDMDL
MODEL 3
REMARK VINA RESULT:      -5.8      1.527      2.214
REMARK  Name = ZINC95486158
REMARK  14 active torsions:
REMARK  status: ('A' for Active; 'I' for Inactive)
REMARK    1  A    between atoms: C1_1  and  C2_2
REMARK    2  A    between atoms: C2_2  and  C3_4
REMARK    3  A    between atoms: C3_4  and  C4_5
REMARK    4  A    between atoms: C9_11  and  O3_15
REMARK    5  A    between atoms: C10_12  and  O2_13
REMARK    6  A    between atoms: O2_13  and  C11_14
REMARK    7  A    between atoms: O3_15  and  C12_16
REMARK    8  A    between atoms: C18_22  and  O5_35
REMARK    9  A    between atoms: C19_23  and  O4_34
REMARK   10  A    between atoms: C20_24  and  C24_29
REMARK   11  A    between atoms: N1_27  and  C23_28
REMARK   12  A    between atoms: C24_29  and  C25_30
REMARK   13  A    between atoms: C24_29  and  C26_31
REMARK   14  A    between atoms: C24_29  and  C27_32
REMARK                            x       y       z     vdW  Elec       q    Type
REMARK                         _______ _______ _______ _____ _____    ______ ____
ROOT
ATOM      4  C   UNL     1      47.390  16.943  19.795  0.00  0.00    +0.324 C 
ATOM      5  C   UNL     1      47.311  15.731  20.689  0.00  0.00    -0.084 A 
ATOM      6  C   UNL     1      46.187  15.534  21.493  0.00  0.00    +0.007 A 
ATOM      7  C   UNL     1      45.064  16.501  21.438  0.00  0.00    -0.013 A 
ATOM      8  C   UNL     1      43.986  16.386  22.325  0.00  0.00    +0.040 A 
ATOM      9  C   UNL     1      42.898  17.191  22.196  0.00  0.00    -0.005 A 
ATOM     10  C   UNL     1      42.888  18.195  21.217  0.00  0.00    -0.033 A 
ATOM     11  C   UNL     1      41.712  18.892  20.895  0.00  0.00    +0.010 A 
ATOM     12  C   UNL     1      41.786  19.998  20.098  0.00  0.00    +0.085 A 
ATOM     15  C   UNL     1      43.030  20.462  19.650  0.00  0.00    +0.076 A 
ATOM     18  C   UNL     1      44.173  19.749  19.894  0.00  0.00    -0.057 A 
ATOM     24  C   UNL     1      44.084  18.490  20.498  0.00  0.00    -0.057 A 
ATOM     25  C   UNL     1      45.073  17.494  20.456  0.00  0.00    +0.213 A 
ATOM     26  C   UNL     1      46.120  14.421  22.328  0.00  0.00    +0.041 A 
ATOM     27  C   UNL     1      47.161  13.513  22.356  0.00  0.00    -0.054 A 
ATOM     28  C   UNL     1      48.273  13.705  21.552  0.00  0.00    +0.099 A 
ATOM     31  C   UNL     1      48.347  14.817  20.716  0.00  0.00    +0.075 A 
ATOM     34  N   UNL     1      46.032  17.384  19.459  0.00  0.00    -0.627 N 
ATOM     35  C   UNL     1      45.688  17.611  18.049  0.00  0.00    +0.300 C 
ENDROOT
BRANCH  18  19
ATOM     19  C   UNL     1      45.496  20.403  19.585  0.00  0.00    +0.024 C 
ATOM     22  C   UNL     1      45.291  21.907  19.397  0.00  0.00    +0.048 C 
ATOM     23  C   UNL     1      46.075  19.803  18.302  0.00  0.00    +0.034 C 
BRANCH  19  20
ATOM     20  C   UNL     1      46.452  20.166  20.727  0.00  0.00    -0.046 C 
ATOM     21  C   UNL     1      46.420  20.944  21.780  0.00  0.00    +0.012 C 
ENDBRANCH  19  20
ENDBRANCH  18  19
BRANCH  12  13
ATOM     13  O   UNL     1      40.650  20.648  19.738  0.00  0.00    -0.487 OA
ATOM     14  H   UNL     1      40.588  21.550  20.080  0.00  0.00    +0.385 HD
ENDBRANCH  12  13
BRANCH  15  16
ATOM     16  O   UNL     1      43.107  21.633  18.964  0.00  0.00    -0.480 OA
ATOM     17  H   UNL     1      42.917  22.415  19.499  0.00  0.00    +0.379 HD
ENDBRANCH  15  16
BRANCH  28  29
ATOM     29  O   UNL     1      49.294  12.807  21.580  0.00  0.00    -0.308 OA
ATOM     30  C   UNL     1      49.005  11.482  21.131  0.00  0.00    +0.238 C 
ENDBRANCH  28  29
BRANCH  31  32
ATOM     32  O   UNL     1      49.440  14.994  19.925  0.00  0.00    -0.322 OA
ATOM     33  C   UNL     1      49.431  14.345  18.651  0.00  0.00    +0.219 C 
ENDBRANCH  31  32
BRANCH   4   3
ATOM      3  C   UNL     1      48.134  18.063  20.523  0.00  0.00    +0.005 C 
BRANCH   3   2
ATOM      1  C   UNL     1      49.429  18.113  18.257  0.00  0.00    +0.049 C 
ATOM      2  C   UNL     1      49.341  18.472  19.719  0.00  0.00    +0.342 C 
ATOM     36  O   UNL     1      50.237  19.086  20.245  0.00  0.00    -0.431 OA
ENDBRANCH   3   2
ENDBRANCH   4   3
TORSDOF 8
ENDMDL
MODEL 4
REMARK VINA RESULT:      -5.6      2.151      7.578
REMARK  Name = ZINC95486158
REMARK  14 active torsions:
REMARK  status: ('A' for Active; 'I' for Inactive)
REMARK    1  A    between atoms: C1_1  and  C2_2
REMARK    2  A    between atoms: C2_2  and  C3_4
REMARK    3  A    between atoms: C3_4  and  C4_5
REMARK    4  A    between atoms: C9_11  and  O3_15
REMARK    5  A    between atoms: C10_12  and  O2_13
REMARK    6  A    between atoms: O2_13  and  C11_14
REMARK    7  A    between atoms: O3_15  and  C12_16
REMARK    8  A    between atoms: C18_22  and  O5_35
REMARK    9  A    between atoms: C19_23  and  O4_34
REMARK   10  A    between atoms: C20_24  and  C24_29
REMARK   11  A    between atoms: N1_27  and  C23_28
REMARK   12  A    between atoms: C24_29  and  C25_30
REMARK   13  A    between atoms: C24_29  and  C26_31
REMARK   14  A    between atoms: C24_29  and  C27_32
REMARK                            x       y       z     vdW  Elec       q    Type
REMARK                         _______ _______ _______ _____ _____    ______ ____
ROOT
ATOM      4  C   UNL     1      45.169  18.072  19.499  0.00  0.00    +0.324 C 
ATOM      5  C   UNL     1      44.755  19.520  19.434  0.00  0.00    -0.084 A 
ATOM      6  C   UNL     1      45.721  20.511  19.248  0.00  0.00    +0.007 A 
ATOM      7  C   UNL     1      47.145  20.129  19.084  0.00  0.00    -0.013 A 
ATOM      8  C   UNL     1      48.139  21.113  19.022  0.00  0.00    +0.040 A 
ATOM      9  C   UNL     1      49.427  20.776  18.747  0.00  0.00    -0.005 A 
ATOM     10  C   UNL     1      49.776  19.425  18.602  0.00  0.00    -0.033 A 
ATOM     11  C   UNL     1      51.029  19.044  18.096  0.00  0.00    +0.010 A 
ATOM     12  C   UNL     1      51.410  17.735  18.169  0.00  0.00    +0.085 A 
ATOM     15  C   UNL     1      50.581  16.793  18.791  0.00  0.00    +0.076 A 
ATOM     18  C   UNL     1      49.327  17.138  19.221  0.00  0.00    -0.057 A 
ATOM     24  C   UNL     1      48.827  18.413  18.933  0.00  0.00    -0.057 A 
ATOM     25  C   UNL     1      47.472  18.779  18.943  0.00  0.00    +0.213 A 
ATOM     26  C   UNL     1      45.339  21.849  19.200  0.00  0.00    +0.041 A 
ATOM     27  C   UNL     1      44.008  22.195  19.330  0.00  0.00    -0.054 A 
ATOM     28  C   UNL     1      43.048  21.210  19.506  0.00  0.00    +0.099 A 
ATOM     31  C   UNL     1      43.424  19.870  19.556  0.00  0.00    +0.075 A 
ATOM     34  N   UNL     1      46.420  17.894  18.753  0.00  0.00    -0.627 N 
ATOM     35  C   UNL     1      46.499  16.829  17.745  0.00  0.00    +0.300 C 
ENDROOT
BRANCH  18  19
ATOM     19  C   UNL     1      48.573  16.151  20.075  0.00  0.00    +0.024 C 
ATOM     22  C   UNL     1      49.553  15.142  20.675  0.00  0.00    +0.048 C 
ATOM     23  C   UNL     1      47.543  15.414  19.216  0.00  0.00    +0.034 C 
BRANCH  19  20
ATOM     20  C   UNL     1      47.867  16.886  21.186  0.00  0.00    -0.046 C 
ATOM     21  C   UNL     1      48.505  17.166  22.295  0.00  0.00    +0.012 C 
ENDBRANCH  19  20
ENDBRANCH  18  19
BRANCH  12  13
ATOM     13  O   UNL     1      52.597  17.345  17.636  0.00  0.00    -0.487 OA
ATOM     14  H   UNL     1      52.925  16.503  17.979  0.00  0.00    +0.385 HD
ENDBRANCH  12  13
BRANCH  15  16
ATOM     16  O   UNL     1      51.021  15.519  18.974  0.00  0.00    -0.480 OA
ATOM     17  H   UNL     1      51.904  15.462  19.364  0.00  0.00    +0.379 HD
ENDBRANCH  15  16
BRANCH  28  29
ATOM     29  O   UNL     1      41.738  21.554  19.630  0.00  0.00    -0.308 OA
ATOM     30  C   UNL     1      41.039  21.889  18.430  0.00  0.00    +0.238 C 
ENDBRANCH  28  29
BRANCH  31  32
ATOM     32  O   UNL     1      42.474  18.909  19.723  0.00  0.00    -0.322 OA
ATOM     33  C   UNL     1      41.771  18.901  20.967  0.00  0.00    +0.219 C 
ENDBRANCH  31  32
BRANCH   4   3
ATOM      3  C   UNL     1      45.375  17.668  20.960  0.00  0.00    +0.005 C 
BRANCH   3   2
ATOM      1  C   UNL     1      43.729  16.341  22.491  0.00  0.00    +0.049 C 
ATOM      2  C   UNL     1      44.586  16.419  21.253  0.00  0.00    +0.342 C 
ATOM     36  O   UNL     1      44.640  15.479  20.496  0.00  0.00    -0.431 OA
ENDBRANCH   3   2
ENDBRANCH   4   3
TORSDOF 8
ENDMDL
MODEL 5
REMARK VINA RESULT:      -5.5      3.023      8.006
REMARK  Name = ZINC95486158
REMARK  14 active torsions:
REMARK  status: ('A' for Active; 'I' for Inactive)
REMARK    1  A    between atoms: C1_1  and  C2_2
REMARK    2  A    between atoms: C2_2  and  C3_4
REMARK    3  A    between atoms: C3_4  and  C4_5
REMARK    4  A    between atoms: C9_11  and  O3_15
REMARK    5  A    between atoms: C10_12  and  O2_13
REMARK    6  A    between atoms: O2_13  and  C11_14
REMARK    7  A    between atoms: O3_15  and  C12_16
REMARK    8  A    between atoms: C18_22  and  O5_35
REMARK    9  A    between atoms: C19_23  and  O4_34
REMARK   10  A    between atoms: C20_24  and  C24_29
REMARK   11  A    between atoms: N1_27  and  C23_28
REMARK   12  A    between atoms: C24_29  and  C25_30
REMARK   13  A    between atoms: C24_29  and  C26_31
REMARK   14  A    between atoms: C24_29  and  C27_32
REMARK                            x       y       z     vdW  Elec       q    Type
REMARK                         _______ _______ _______ _____ _____    ______ ____
ROOT
ATOM      4  C   UNL     1      46.838  17.780  19.621  0.00  0.00    +0.324 C 
ATOM      5  C   UNL     1      46.753  19.209  20.094  0.00  0.00    -0.084 A 
ATOM      6  C   UNL     1      47.780  20.104  19.787  0.00  0.00    +0.007 A 
ATOM      7  C   UNL     1      48.932  19.650  18.972  0.00  0.00    -0.013 A 
ATOM      8  C   UNL     1      50.028  20.497  18.760  0.00  0.00    +0.040 A 
ATOM      9  C   UNL     1      51.027  20.134  17.912  0.00  0.00    -0.005 A 
ATOM     10  C   UNL     1      50.998  18.869  17.306  0.00  0.00    -0.033 A 
ATOM     11  C   UNL     1      51.874  18.541  16.258  0.00  0.00    +0.010 A 
ATOM     12  C   UNL     1      51.962  17.244  15.842  0.00  0.00    +0.085 A 
ATOM     15  C   UNL     1      51.225  16.244  16.489  0.00  0.00    +0.076 A 
ATOM     18  C   UNL     1      50.314  16.562  17.460  0.00  0.00    -0.057 A 
ATOM     24  C   UNL     1      50.034  17.907  17.728  0.00  0.00    -0.057 A 
ATOM     25  C   UNL     1      48.886  18.387  18.377  0.00  0.00    +0.213 A 
ATOM     26  C   UNL     1      47.706  21.421  20.234  0.00  0.00    +0.041 A 
ATOM     27  C   UNL     1      46.618  21.842  20.973  0.00  0.00    -0.054 A 
ATOM     28  C   UNL     1      45.595  20.955  21.270  0.00  0.00    +0.099 A 
ATOM     31  C   UNL     1      45.663  19.636  20.828  0.00  0.00    +0.075 A 
ATOM     34  N   UNL     1      47.670  17.719  18.415  0.00  0.00    -0.627 N 
ATOM     35  C   UNL     1      47.151  17.024  17.229  0.00  0.00    +0.300 C 
ENDROOT
BRANCH  18  19
ATOM     19  C   UNL     1      49.719  15.439  18.271  0.00  0.00    +0.024 C 
ATOM     22  C   UNL     1      50.581  14.185  18.115  0.00  0.00    +0.048 C 
ATOM     23  C   UNL     1      48.301  15.148  17.776  0.00  0.00    +0.034 C 
BRANCH  19  20
ATOM     20  C   UNL     1      49.672  15.838  19.724  0.00  0.00    -0.046 C 
ATOM     21  C   UNL     1      50.721  15.653  20.487  0.00  0.00    +0.012 C 
ENDBRANCH  19  20
ENDBRANCH  18  19
BRANCH  12  13
ATOM     13  O   UNL     1      52.766  16.923  14.795  0.00  0.00    -0.487 OA
ATOM     14  H   UNL     1      53.476  17.560  14.635  0.00  0.00    +0.385 HD
ENDBRANCH  12  13
BRANCH  15  16
ATOM     16  O   UNL     1      51.414  14.940  16.153  0.00  0.00    -0.480 OA
ATOM     17  H   UNL     1      50.865  14.322  16.653  0.00  0.00    +0.379 HD
ENDBRANCH  15  16
BRANCH  28  29
ATOM     29  O   UNL     1      44.523  21.374  21.995  0.00  0.00    -0.308 OA
ATOM     30  C   UNL     1      44.297  22.783  22.064  0.00  0.00    +0.238 C 
ENDBRANCH  28  29
BRANCH  31  32
ATOM     32  O   UNL     1      44.650  18.774  21.118  0.00  0.00    -0.322 OA
ATOM     33  C   UNL     1      43.553  18.731  20.204  0.00  0.00    +0.219 C 
ENDBRANCH  31  32
BRANCH   4   3
ATOM      3  C   UNL     1      47.458  16.918  20.722  0.00  0.00    +0.005 C 
BRANCH   3   2
ATOM      1  C   UNL     1      45.405  15.382  20.229  0.00  0.00    +0.049 C 
ATOM      2  C   UNL     1      46.454  15.893  21.184  0.00  0.00    +0.342 C 
ATOM     36  O   UNL     1      46.490  15.482  22.319  0.00  0.00    -0.431 OA
ENDBRANCH   3   2
ENDBRANCH   4   3
TORSDOF 8
ENDMDL
MODEL 6
REMARK VINA RESULT:      -5.5      3.913      8.272
REMARK  Name = ZINC95486158
REMARK  14 active torsions:
REMARK  status: ('A' for Active; 'I' for Inactive)
REMARK    1  A    between atoms: C1_1  and  C2_2
REMARK    2  A    between atoms: C2_2  and  C3_4
REMARK    3  A    between atoms: C3_4  and  C4_5
REMARK    4  A    between atoms: C9_11  and  O3_15
REMARK    5  A    between atoms: C10_12  and  O2_13
REMARK    6  A    between atoms: O2_13  and  C11_14
REMARK    7  A    between atoms: O3_15  and  C12_16
REMARK    8  A    between atoms: C18_22  and  O5_35
REMARK    9  A    between atoms: C19_23  and  O4_34
REMARK   10  A    between atoms: C20_24  and  C24_29
REMARK   11  A    between atoms: N1_27  and  C23_28
REMARK   12  A    between atoms: C24_29  and  C25_30
REMARK   13  A    between atoms: C24_29  and  C26_31
REMARK   14  A    between atoms: C24_29  and  C27_32
REMARK                            x       y       z     vdW  Elec       q    Type
REMARK                         _______ _______ _______ _____ _____    ______ ____
ROOT
ATOM      4  C   UNL     1      48.468  18.191  18.578  0.00  0.00    +0.324 C 
ATOM      5  C   UNL     1      49.882  18.701  18.462  0.00  0.00    -0.084 A 
ATOM      6  C   UNL     1      50.864  17.894  17.884  0.00  0.00    +0.007 A 
ATOM      7  C   UNL     1      50.504  16.555  17.361  0.00  0.00    -0.013 A 
ATOM      8  C   UNL     1      51.497  15.685  16.892  0.00  0.00    +0.040 A 
ATOM      9  C   UNL     1      51.161  14.510  16.297  0.00  0.00    -0.005 A 
ATOM     10  C   UNL     1      49.813  14.130  16.222  0.00  0.00    -0.033 A 
ATOM     11  C   UNL     1      49.401  13.051  15.423  0.00  0.00    +0.010 A 
ATOM     12  C   UNL     1      48.125  12.580  15.541  0.00  0.00    +0.085 A 
ATOM     15  C   UNL     1      47.253  13.135  16.486  0.00  0.00    +0.076 A 
ATOM     18  C   UNL     1      47.619  14.234  17.217  0.00  0.00    -0.057 A 
ATOM     24  C   UNL     1      48.829  14.877  16.935  0.00  0.00    -0.057 A 
ATOM     25  C   UNL     1      49.156  16.194  17.295  0.00  0.00    +0.213 A 
ATOM     26  C   UNL     1      52.173  18.360  17.787  0.00  0.00    +0.041 A 
ATOM     27  C   UNL     1      52.497  19.619  18.256  0.00  0.00    -0.054 A 
ATOM     28  C   UNL     1      51.520  20.422  18.822  0.00  0.00    +0.099 A 
ATOM     31  C   UNL     1      50.209  19.961  18.923  0.00  0.00    +0.075 A 
ATOM     34  N   UNL     1      48.225  17.196  17.528  0.00  0.00    -0.627 N 
ATOM     35  C   UNL     1      47.036  17.339  16.677  0.00  0.00    +0.300 C 
ENDROOT
BRANCH  18  19
ATOM     19  C   UNL     1      46.736  14.647  18.368  0.00  0.00    +0.024 C 
ATOM     22  C   UNL     1      45.934  15.889  17.975  0.00  0.00    +0.048 C 
ATOM     23  C   UNL     1      47.603  14.965  19.588  0.00  0.00    +0.034 C 
BRANCH  19  20
ATOM     20  C   UNL     1      45.789  13.524  18.702  0.00  0.00    -0.046 C 
ATOM     21  C   UNL     1      45.146  13.527  19.844  0.00  0.00    +0.012 C 
ENDBRANCH  19  20
ENDBRANCH  18  19
BRANCH  12  13
ATOM     13  O   UNL     1      47.699  11.572  14.736  0.00  0.00    -0.487 OA
ATOM     14  H   UNL     1      47.081  11.853  14.048  0.00  0.00    +0.385 HD
ENDBRANCH  12  13
BRANCH  15  16
ATOM     16  O   UNL     1      46.028  12.578  16.686  0.00  0.00    -0.480 OA
ATOM     17  H   UNL     1      45.802  11.888  16.048  0.00  0.00    +0.379 HD
ENDBRANCH  15  16
BRANCH  28  29
ATOM     29  O   UNL     1      51.841  21.662  19.279  0.00  0.00    -0.308 OA
ATOM     30  C   UNL     1      52.820  21.737  20.317  0.00  0.00    +0.238 C 
ENDBRANCH  28  29
BRANCH  31  32
ATOM     32  O   UNL     1      49.254  20.760  19.474  0.00  0.00    -0.322 OA
ATOM     33  C   UNL     1      49.277  20.913  20.895  0.00  0.00    +0.219 C 
ENDBRANCH  31  32
BRANCH   4   3
ATOM      3  C   UNL     1      48.271  17.552  19.954  0.00  0.00    +0.005 C 
BRANCH   3   2
ATOM      1  C   UNL     1      46.170  19.100  19.874  0.00  0.00    +0.049 C 
ATOM      2  C   UNL     1      47.101  18.200  20.647  0.00  0.00    +0.342 C 
ATOM     36  O   UNL     1      46.908  17.999  21.822  0.00  0.00    -0.431 OA
ENDBRANCH   3   2
ENDBRANCH   4   3
TORSDOF 8
ENDMDL
MODEL 7
REMARK VINA RESULT:      -5.4      3.892      7.575
REMARK  Name = ZINC95486158
REMARK  14 active torsions:
REMARK  status: ('A' for Active; 'I' for Inactive)
REMARK    1  A    between atoms: C1_1  and  C2_2
REMARK    2  A    between atoms: C2_2  and  C3_4
REMARK    3  A    between atoms: C3_4  and  C4_5
REMARK    4  A    between atoms: C9_11  and  O3_15
REMARK    5  A    between atoms: C10_12  and  O2_13
REMARK    6  A    between atoms: O2_13  and  C11_14
REMARK    7  A    between atoms: O3_15  and  C12_16
REMARK    8  A    between atoms: C18_22  and  O5_35
REMARK    9  A    between atoms: C19_23  and  O4_34
REMARK   10  A    between atoms: C20_24  and  C24_29
REMARK   11  A    between atoms: N1_27  and  C23_28
REMARK   12  A    between atoms: C24_29  and  C25_30
REMARK   13  A    between atoms: C24_29  and  C26_31
REMARK   14  A    between atoms: C24_29  and  C27_32
REMARK                            x       y       z     vdW  Elec       q    Type
REMARK                         _______ _______ _______ _____ _____    ______ ____
ROOT
ATOM      4  C   UNL     1      48.079  18.156  18.933  0.00  0.00    +0.324 C 
ATOM      5  C   UNL     1      49.420  18.427  18.298  0.00  0.00    -0.084 A 
ATOM      6  C   UNL     1      50.037  17.437  17.530  0.00  0.00    +0.007 A 
ATOM      7  C   UNL     1      49.354  16.138  17.317  0.00  0.00    -0.013 A 
ATOM      8  C   UNL     1      50.010  15.093  16.655  0.00  0.00    +0.040 A 
ATOM      9  C   UNL     1      49.348  13.947  16.348  0.00  0.00    -0.005 A 
ATOM     10  C   UNL     1      48.019  13.780  16.765  0.00  0.00    -0.033 A 
ATOM     11  C   UNL     1      47.227  12.726  16.280  0.00  0.00    +0.010 A 
ATOM     12  C   UNL     1      46.020  12.472  16.865  0.00  0.00    +0.085 A 
ATOM     15  C   UNL     1      45.601  13.221  17.972  0.00  0.00    +0.076 A 
ATOM     18  C   UNL     1      46.329  14.297  18.406  0.00  0.00    -0.057 A 
ATOM     24  C   UNL     1      47.440  14.720  17.668  0.00  0.00    -0.057 A 
ATOM     25  C   UNL     1      48.032  15.991  17.742  0.00  0.00    +0.213 A 
ATOM     26  C   UNL     1      51.280  17.684  16.954  0.00  0.00    +0.041 A 
ATOM     27  C   UNL     1      51.900  18.905  17.138  0.00  0.00    -0.054 A 
ATOM     28  C   UNL     1      51.283  19.889  17.894  0.00  0.00    +0.099 A 
ATOM     31  C   UNL     1      50.039  19.649  18.474  0.00  0.00    +0.075 A 
ATOM     34  N   UNL     1      47.370  17.141  18.147  0.00  0.00    -0.627 N 
ATOM     35  C   UNL     1      45.989  17.409  17.723  0.00  0.00    +0.300 C 
ENDROOT
BRANCH  18  19
ATOM     19  C   UNL     1      45.952  14.923  19.725  0.00  0.00    +0.024 C 
ATOM     22  C   UNL     1      45.144  16.197  19.473  0.00  0.00    +0.048 C 
ATOM     23  C   UNL     1      47.221  15.271  20.506  0.00  0.00    +0.034 C 
BRANCH  19  20
ATOM     20  C   UNL     1      45.121  13.951  20.523  0.00  0.00    -0.046 C 
ATOM     21  C   UNL     1      45.118  14.013  21.832  0.00  0.00    +0.012 C 
ENDBRANCH  19  20
ENDBRANCH  18  19
BRANCH  12  13
ATOM     13  O   UNL     1      45.223  11.490  16.371  0.00  0.00    -0.487 OA
ATOM     14  H   UNL     1      44.278  11.691  16.414  0.00  0.00    +0.385 HD
ENDBRANCH  12  13
BRANCH  15  16
ATOM     16  O   UNL     1      44.460  12.880  18.627  0.00  0.00    -0.480 OA
ATOM     17  H   UNL     1      44.481  11.997  19.020  0.00  0.00    +0.379 HD
ENDBRANCH  15  16
BRANCH  28  29
ATOM     29  O   UNL     1      51.894  21.093  18.070  0.00  0.00    -0.308 OA
ATOM     30  C   UNL     1      52.948  21.150  19.032  0.00  0.00    +0.238 C 
ENDBRANCH  28  29
BRANCH  31  32
ATOM     32  O   UNL     1      49.439  20.624  19.209  0.00  0.00    -0.322 OA
ATOM     33  C   UNL     1      49.894  20.797  20.553  0.00  0.00    +0.219 C 
ENDBRANCH  31  32
BRANCH   4   3
ATOM      3  C   UNL     1      48.287  17.653  20.363  0.00  0.00    +0.005 C 
BRANCH   3   2
ATOM      1  C   UNL     1      46.439  19.450  20.775  0.00  0.00    +0.049 C 
ATOM      2  C   UNL     1      47.463  18.483  21.313  0.00  0.00    +0.342 C 
ATOM     36  O   UNL     1      47.623  18.373  22.504  0.00  0.00    -0.431 OA
ENDBRANCH   3   2
ENDBRANCH   4   3
TORSDOF 8
ENDMDL
MODEL 8
REMARK VINA RESULT:      -5.4      2.732      5.716
REMARK  Name = ZINC95486158
REMARK  14 active torsions:
REMARK  status: ('A' for Active; 'I' for Inactive)
REMARK    1  A    between atoms: C1_1  and  C2_2
REMARK    2  A    between atoms: C2_2  and  C3_4
REMARK    3  A    between atoms: C3_4  and  C4_5
REMARK    4  A    between atoms: C9_11  and  O3_15
REMARK    5  A    between atoms: C10_12  and  O2_13
REMARK    6  A    between atoms: O2_13  and  C11_14
REMARK    7  A    between atoms: O3_15  and  C12_16
REMARK    8  A    between atoms: C18_22  and  O5_35
REMARK    9  A    between atoms: C19_23  and  O4_34
REMARK   10  A    between atoms: C20_24  and  C24_29
REMARK   11  A    between atoms: N1_27  and  C23_28
REMARK   12  A    between atoms: C24_29  and  C25_30
REMARK   13  A    between atoms: C24_29  and  C26_31
REMARK   14  A    between atoms: C24_29  and  C27_32
REMARK                            x       y       z     vdW  Elec       q    Type
REMARK                         _______ _______ _______ _____ _____    ______ ____
ROOT
ATOM      4  C   UNL     1      47.605  15.847  19.558  0.00  0.00    +0.324 C 
ATOM      5  C   UNL     1      48.899  16.002  18.799  0.00  0.00    -0.084 A 
ATOM      6  C   UNL     1      49.418  17.277  18.568  0.00  0.00    +0.007 A 
ATOM      7  C   UNL     1      48.710  18.468  19.096  0.00  0.00    -0.013 A 
ATOM      8  C   UNL     1      49.149  19.757  18.768  0.00  0.00    +0.040 A 
ATOM      9  C   UNL     1      48.583  20.848  19.349  0.00  0.00    -0.005 A 
ATOM     10  C   UNL     1      47.499  20.684  20.225  0.00  0.00    -0.033 A 
ATOM     11  C   UNL     1      47.034  21.745  21.019  0.00  0.00    +0.010 A 
ATOM     12  C   UNL     1      45.855  21.609  21.693  0.00  0.00    +0.085 A 
ATOM     15  C   UNL     1      45.091  20.444  21.551  0.00  0.00    +0.076 A 
ATOM     18  C   UNL     1      45.569  19.375  20.840  0.00  0.00    -0.057 A 
ATOM     24  C   UNL     1      46.879  19.406  20.348  0.00  0.00    -0.057 A 
ATOM     25  C   UNL     1      47.633  18.285  19.966  0.00  0.00    +0.213 A 
ATOM     26  C   UNL     1      50.607  17.421  17.857  0.00  0.00    +0.041 A 
ATOM     27  C   UNL     1      51.273  16.305  17.387  0.00  0.00    -0.054 A 
ATOM     28  C   UNL     1      50.761  15.039  17.625  0.00  0.00    +0.099 A 
ATOM     31  C   UNL     1      49.571  14.888  18.334  0.00  0.00    +0.075 A 
ATOM     34  N   UNL     1      47.425  17.000  20.447  0.00  0.00    -0.627 N 
ATOM     35  C   UNL     1      47.117  16.762  21.864  0.00  0.00    +0.300 C 
ENDROOT
BRANCH  18  19
ATOM     19  C   UNL     1      44.621  18.244  20.535  0.00  0.00    +0.024 C 
ATOM     22  C   UNL     1      44.936  17.672  19.152  0.00  0.00    +0.048 C 
ATOM     23  C   UNL     1      43.182  18.764  20.557  0.00  0.00    +0.034 C 
BRANCH  19  20
ATOM     20  C   UNL     1      44.780  17.162  21.573  0.00  0.00    -0.046 C 
ATOM     21  C   UNL     1      43.723  16.657  22.160  0.00  0.00    +0.012 C 
ENDBRANCH  19  20
ENDBRANCH  18  19
BRANCH  12  13
ATOM     13  O   UNL     1      45.422  22.608  22.505  0.00  0.00    -0.487 OA
ATOM     14  H   UNL     1      44.744  23.172  22.109  0.00  0.00    +0.385 HD
ENDBRANCH  12  13
BRANCH  15  16
ATOM     16  O   UNL     1      43.860  20.368  22.122  0.00  0.00    -0.480 OA
ATOM     17  H   UNL     1      43.173  20.030  21.532  0.00  0.00    +0.379 HD
ENDBRANCH  15  16
BRANCH  28  29
ATOM     29  O   UNL     1      51.421  13.942  17.165  0.00  0.00    -0.308 OA
ATOM     30  C   UNL     1      51.329  13.670  15.765  0.00  0.00    +0.238 C 
ENDBRANCH  28  29
BRANCH  31  32
ATOM     32  O   UNL     1      49.079  13.641  18.569  0.00  0.00    -0.322 OA
ATOM     33  C   UNL     1      49.528  12.979  19.753  0.00  0.00    +0.219 C 
ENDBRANCH  31  32
BRANCH   4   3
ATOM      3  C   UNL     1      46.442  15.770  18.567  0.00  0.00    +0.005 C 
BRANCH   3   2
ATOM      1  C   UNL     1      45.238  13.838  19.844  0.00  0.00    +0.049 C 
ATOM      2  C   UNL     1      45.859  14.381  18.582  0.00  0.00    +0.342 C 
ATOM     36  O   UNL     1      45.889  13.702  17.584  0.00  0.00    -0.431 OA
ENDBRANCH   3   2
ENDBRANCH   4   3
TORSDOF 8
ENDMDL
MODEL 9
REMARK VINA RESULT:      -5.4      2.567      4.314
REMARK  Name = ZINC95486158
REMARK  14 active torsions:
REMARK  status: ('A' for Active; 'I' for Inactive)
REMARK    1  A    between atoms: C1_1  and  C2_2
REMARK    2  A    between atoms: C2_2  and  C3_4
REMARK    3  A    between atoms: C3_4  and  C4_5
REMARK    4  A    between atoms: C9_11  and  O3_15
REMARK    5  A    between atoms: C10_12  and  O2_13
REMARK    6  A    between atoms: O2_13  and  C11_14
REMARK    7  A    between atoms: O3_15  and  C12_16
REMARK    8  A    between atoms: C18_22  and  O5_35
REMARK    9  A    between atoms: C19_23  and  O4_34
REMARK   10  A    between atoms: C20_24  and  C24_29
REMARK   11  A    between atoms: N1_27  and  C23_28
REMARK   12  A    between atoms: C24_29  and  C25_30
REMARK   13  A    between atoms: C24_29  and  C26_31
REMARK   14  A    between atoms: C24_29  and  C27_32
REMARK                            x       y       z     vdW  Elec       q    Type
REMARK                         _______ _______ _______ _____ _____    ______ ____
ROOT
ATOM      4  C   UNL     1      48.832  18.730  18.993  0.00  0.00    +0.324 C 
ATOM      5  C   UNL     1      49.615  17.490  19.343  0.00  0.00    -0.084 A 
ATOM      6  C   UNL     1      49.074  16.554  20.226  0.00  0.00    +0.007 A 
ATOM      7  C   UNL     1      47.719  16.769  20.788  0.00  0.00    -0.013 A 
ATOM      8  C   UNL     1      47.212  15.906  21.767  0.00  0.00    +0.040 A 
ATOM      9  C   UNL     1      45.926  16.023  22.193  0.00  0.00    -0.005 A 
ATOM     10  C   UNL     1      45.126  17.067  21.705  0.00  0.00    -0.033 A 
ATOM     11  C   UNL     1      43.740  17.095  21.935  0.00  0.00    +0.010 A 
ATOM     12  C   UNL     1      43.034  18.223  21.631  0.00  0.00    +0.085 A 
ATOM     15  C   UNL     1      43.695  19.359  21.146  0.00  0.00    +0.076 A 
ATOM     18  C   UNL     1      45.031  19.319  20.848  0.00  0.00    -0.057 A 
ATOM     24  C   UNL     1      45.717  18.102  20.921  0.00  0.00    -0.057 A 
ATOM     25  C   UNL     1      46.937  17.814  20.289  0.00  0.00    +0.213 A 
ATOM     26  C   UNL     1      49.803  15.415  20.558  0.00  0.00    +0.041 A 
ATOM     27  C   UNL     1      51.055  15.210  20.013  0.00  0.00    -0.054 A 
ATOM     28  C   UNL     1      51.589  16.136  19.130  0.00  0.00    +0.099 A 
ATOM     31  C   UNL     1      50.865  17.278  18.794  0.00  0.00    +0.075 A 
ATOM     34  N   UNL     1      47.399  18.456  19.150  0.00  0.00    -0.627 N 
ATOM     35  C   UNL     1      46.489  18.787  18.045  0.00  0.00    +0.300 C 
ENDROOT
BRANCH  18  19
ATOM     19  C   UNL     1      45.730  20.620  20.545  0.00  0.00    +0.024 C 
ATOM     22  C   UNL     1      45.842  20.798  19.029  0.00  0.00    +0.048 C 
ATOM     23  C   UNL     1      47.130  20.604  21.161  0.00  0.00    +0.034 C 
BRANCH  19  20
ATOM     20  C   UNL     1      44.938  21.763  21.127  0.00  0.00    -0.046 C 
ATOM     21  C   UNL     1      45.284  22.999  20.866  0.00  0.00    +0.012 C 
ENDBRANCH  19  20
ENDBRANCH  18  19
BRANCH  12  13
ATOM     13  O   UNL     1      41.687  18.243  21.800  0.00  0.00    -0.487 OA
ATOM     14  H   UNL     1      41.209  17.641  21.213  0.00  0.00    +0.385 HD
ENDBRANCH  12  13
BRANCH  15  16
ATOM     16  O   UNL     1      43.006  20.518  20.968  0.00  0.00    -0.480 OA
ATOM     17  H   UNL     1      42.609  20.607  20.091  0.00  0.00    +0.379 HD
ENDBRANCH  15  16
BRANCH  28  29
ATOM     29  O   UNL     1      52.821  15.929  18.592  0.00  0.00    -0.308 OA
ATOM     30  C   UNL     1      53.947  16.198  19.428  0.00  0.00    +0.238 C 
ENDBRANCH  28  29
BRANCH  31  32
ATOM     32  O   UNL     1      51.394  18.179  17.922  0.00  0.00    -0.322 OA
ATOM     33  C   UNL     1      51.163  17.948  16.531  0.00  0.00    +0.219 C 
ENDBRANCH  31  32
BRANCH   4   3
ATOM      3  C   UNL     1      49.246  19.872  19.924  0.00  0.00    +0.005 C 
BRANCH   3   2
ATOM      1  C   UNL     1      51.512  21.163  19.812  0.00  0.00    +0.049 C 
ATOM      2  C   UNL     1      50.185  20.799  19.196  0.00  0.00    +0.342 C 
ATOM     36  O   UNL     1      49.874  21.251  18.121  0.00  0.00    -0.431 OA
ENDBRANCH   3   2
ENDBRANCH   4   3
TORSDOF 8
ENDMDL
