REMARK  10 active torsions:
REMARK  status: ('A' for Active; 'I' for Inactive)
REMARK    1  A    between atoms: N1_1  and  C11_16 
REMARK       I    between atoms: N1_1  and  C12_17 
REMARK       I    between atoms: N3_3  and  C19_21 
REMARK    2  A    between atoms: N3_3  and  C20_22 
REMARK    3  A    between atoms: C15_5  and  C16_6 
REMARK    4  A    between atoms: C15_5  and  C14_19 
REMARK    5  A    between atoms: C16_6  and  C17_7 
REMARK       I    between atoms: N2_10  and  C12_17 
REMARK    6  A    between atoms: N2_10  and  C14_19 
REMARK    7  A    between atoms: C10_15  and  C11_16 
REMARK    8  A    between atoms: C14_19  and  C18_20 
REMARK    9  A    between atoms: C18_20  and  O32_32 
REMARK   10  A    between atoms: C19_21  and  O32_32 
ROOT
HETATM    1  N1  52E A 901      47.444  18.588   8.437  1.00 33.64    -0.214 NA
HETATM    2  N2  52E A 901      49.017  19.084  10.376  1.00 37.27    -0.299 N 
HETATM    3  C12 52E A 901      47.639  18.958   9.824  1.00 35.54     0.342 C 
HETATM    4  C13 52E A 901      50.181  18.832   9.512  1.00 36.51     0.130 C 
HETATM    5  O29 52E A 901      46.664  19.169  10.548  1.00 37.34    -0.245 OA
ENDROOT
BRANCH   1   6
HETATM    6  C11 52E A 901      46.084  18.465   7.896  1.00 33.51     0.158 C 
BRANCH   6   7
HETATM    7  C10 52E A 901      45.351  19.750   7.523  1.00 30.05     0.015 A 
HETATM    8  C6  52E A 901      44.045  19.694   7.045  1.00 31.30     0.083 A 
HETATM    9  C5  52E A 901      43.367  20.888   6.699  1.00 27.94     0.150 A 
HETATM   10 CL1  52E A 901      43.256  18.181   6.873  1.00 47.11    -0.080 Cl
HETATM   11  C7  52E A 901      43.995  22.093   6.836  1.00 29.09     0.030 A 
HETATM   12  F35 52E A 901      42.120  20.836   6.243  1.00 38.62    -0.203 F 
HETATM   13  C8  52E A 901      45.300  22.147   7.314  1.00 28.50     0.002 A 
HETATM   14  C9  52E A 901      45.977  20.958   7.658  1.00 25.58    -0.001 A 
ENDBRANCH   6   7
ENDBRANCH   1   6
BRANCH   2  15
HETATM   15  C14 52E A 901      49.211  19.458  11.781  1.00 37.33     0.118 C 
BRANCH  15  16
HETATM   16  C15 52E A 901      50.271  18.586  12.509  1.00 31.94     0.061 C 
BRANCH  16  17
HETATM   17  C16 52E A 901      50.164  17.093  12.361  1.00 40.74     0.187 C 
HETATM   18  O31 52E A 901      51.432  16.575  12.055  1.00 50.51    -0.221 OA
BRANCH  17  19
HETATM   19  C17 52E A 901      49.644  16.427  13.586  1.00 36.32     0.215 C 
HETATM   20  O30 52E A 901      48.277  16.153  13.643  1.00 46.55    -0.218 OA
ENDBRANCH  17  19
ENDBRANCH  16  17
ENDBRANCH  15  16
BRANCH  15  21
HETATM   21  C18 52E A 901      49.549  20.931  11.889  1.00 31.26     0.176 C 
BRANCH  21  22
HETATM   22  O32 52E A 901      49.327  21.722  10.777  1.00 37.28    -0.281 OA
BRANCH  22  23
HETATM   23  C19 52E A 901      48.398  22.730  10.837  1.00 33.97     0.389 C 
HETATM   24  N3  52E A 901      48.800  24.087  10.606  1.00 33.44    -0.167 NA
HETATM   25  O33 52E A 901      47.253  22.482  11.151  1.00 37.74    -0.236 OA
BRANCH  24  26
HETATM   26  C20 52E A 901      47.840  25.047  10.134  1.00 33.26     0.168 A 
HETATM   27  N4  52E A 901      46.548  24.713  10.069  1.00 28.63    -0.225 NA
HETATM   28  C24 52E A 901      45.643  25.614   9.626  1.00 25.22     0.101 A 
HETATM   29  C23 52E A 901      46.006  26.937   9.213  1.00 24.85     0.019 A 
HETATM   30  C22 52E A 901      47.323  27.303   9.270  1.00 26.20     0.005 A 
HETATM   31  C28 52E A 901      45.015  27.874   8.745  1.00 28.06     0.002 A 
HETATM   32  C21 52E A 901      48.268  26.325   9.746  1.00 29.60     0.039 A 
HETATM   33  C25 52E A 901      47.715  28.605   8.869  1.00 26.71     0.000 A 
HETATM   34  C26 52E A 901      46.742  29.524   8.409  1.00 28.50     0.000 A 
HETATM   35  C27 52E A 901      45.396  29.147   8.352  1.00 31.73     0.000 A 
ENDBRANCH  24  26
ENDBRANCH  22  23
ENDBRANCH  21  22
ENDBRANCH  15  21
ENDBRANCH   2  15
TORSDOF 10
