MODEL 1
REMARK VINA RESULT:      -4.0      0.000      0.000
REMARK  Name = ZINC95486338
REMARK  42 active torsions:
REMARK  status: ('A' for Active; 'I' for Inactive)
REMARK    1  A    between atoms: C1_1  and  O1_2
REMARK    2  A    between atoms: O1_2  and  C2_3
REMARK    3  A    between atoms: C4_5  and  C10_14
REMARK    4  A    between atoms: C7_8  and  O2_9
REMARK    5  A    between atoms: O2_9  and  C8_10
REMARK    6  A    between atoms: C8_10  and  C9_11
REMARK    7  A    between atoms: C11_15  and  C12_16
REMARK    8  A    between atoms: C12_16  and  O6_18
REMARK    9  A    between atoms: O6_18  and  C13_19
REMARK   10  A    between atoms: C13_19  and  C14_20
REMARK   11  A    between atoms: C14_20  and  C15_21
REMARK   12  A    between atoms: C15_21  and  C16_22
REMARK   13  A    between atoms: C16_22  and  C17_23
REMARK   14  A    between atoms: C17_23  and  C18_24
REMARK   15  A    between atoms: C18_24  and  C19_25
REMARK   16  A    between atoms: C19_25  and  C20_26
REMARK   17  A    between atoms: C20_26  and  C21_27
REMARK   18  A    between atoms: C21_27  and  C22_28
REMARK   19  A    between atoms: C22_28  and  C23_29
REMARK   20  A    between atoms: C23_29  and  C24_30
REMARK   21  A    between atoms: C24_30  and  C25_31
REMARK   22  A    between atoms: C25_31  and  C26_32
REMARK   23  A    between atoms: C26_32  and  C27_33
REMARK   24  A    between atoms: C27_33  and  C28_34
REMARK   25  A    between atoms: C28_34  and  C29_35
REMARK   26  A    between atoms: C29_35  and  C30_36
REMARK   27  A    between atoms: C30_36  and  C31_37
REMARK   28  A    between atoms: C31_37  and  C32_38
REMARK   29  A    between atoms: C32_38  and  C33_39
REMARK   30  A    between atoms: C33_39  and  C34_40
REMARK   31  A    between atoms: C34_40  and  C35_41
REMARK   32  A    between atoms: C35_41  and  C36_42
REMARK   33  A    between atoms: C36_42  and  O8_44
REMARK   34  A    between atoms: O8_44  and  C37_45
REMARK   35  A    between atoms: C37_45  and  C38_46
REMARK   36  A    between atoms: C38_46  and  C39_48
REMARK   37  A    between atoms: C38_46  and  O12_54
REMARK   38  A    between atoms: C39_48  and  O9_49
REMARK   39  A    between atoms: O9_49  and  C40_50
REMARK   40  A    between atoms: C40_50  and  C41_51
REMARK   41  A    between atoms: O12_54  and  C42_55
REMARK   42  A    between atoms: C42_55  and  C43_56
REMARK                            x       y       z     vdW  Elec       q    Type
REMARK                         _______ _______ _______ _____ _____    ______ ____
ROOT
ATOM     20  C   UNL     1      45.843  21.247  18.756  0.00  0.00    -0.000 C 
ENDROOT
BRANCH  20  19
ATOM     19  C   UNL     1      45.872  19.793  19.231  0.00  0.00    -0.000 C 
BRANCH  19  18
ATOM     18  C   UNL     1      45.983  18.862  18.023  0.00  0.00    -0.000 C 
BRANCH  18  17
ATOM     17  C   UNL     1      47.292  18.074  18.104  0.00  0.00    -0.000 C 
BRANCH  17  16
ATOM     16  C   UNL     1      47.818  18.105  19.540  0.00  0.00    +0.000 C 
BRANCH  16  15
ATOM     15  C   UNL     1      49.344  18.191  19.523  0.00  0.00    +0.001 C 
BRANCH  15  14
ATOM     14  C   UNL     1      49.805  19.287  20.487  0.00  0.00    +0.002 C 
BRANCH  14  13
ATOM     13  C   UNL     1      49.320  20.647  19.983  0.00  0.00    +0.008 C 
BRANCH  13  12
ATOM     12  C   UNL     1      50.087  21.022  18.713  0.00  0.00    +0.013 C 
BRANCH  12  11
ATOM     11  C   UNL     1      51.568  21.213  19.049  0.00  0.00    +0.029 C 
BRANCH  11  10
ATOM     10  C   UNL     1      52.425  20.659  17.910  0.00  0.00    +0.198 C 
BRANCH  10   9
ATOM      9  O   UNL     1      52.235  19.246  17.813  0.00  0.00    -0.352 OA
BRANCH   9   8
ATOM      8  C   UNL     1      51.878  18.757  16.607  0.00  0.00    +0.506 C 
ATOM     49  O   UNL     1      52.251  19.312  15.591  0.00  0.00    -0.524 OA
BRANCH   8   7
ATOM      6  C   UNL     1      51.559  16.402  16.925  0.00  0.00    +0.174 C 
ATOM      7  C   UNL     1      51.069  17.596  16.525  0.00  0.00    -0.097 C 
BRANCH   6   5
ATOM      3  C   UNL     1      50.489  12.849  16.374  0.00  0.00    +0.084 A 
ATOM      4  C   UNL     1      51.282  13.977  16.451  0.00  0.00    -0.003 A 
ATOM      5  C   UNL     1      50.720  15.199  16.841  0.00  0.00    -0.118 A 
ATOM     50  C   UNL     1      49.357  15.269  17.150  0.00  0.00    +0.059 A 
ATOM     51  C   UNL     1      48.573  14.140  17.070  0.00  0.00    -0.053 A 
ATOM     52  C   UNL     1      49.131  12.930  16.678  0.00  0.00    +0.143 A 
BRANCH   3   2
ATOM      1  C   UNL     1      51.627  11.603  14.698  0.00  0.00    +0.229 C 
ATOM      2  O   UNL     1      51.032  11.661  15.996  0.00  0.00    -0.296 OA
ENDBRANCH   3   2
BRANCH  52  53
ATOM     53  O   UNL     1      48.351  11.821  16.597  0.00  0.00    -0.263 OA
BRANCH  53  54
ATOM     54  C   UNL     1      47.194  11.778  17.432  0.00  0.00    +0.113 C 
BRANCH  54  55
ATOM     55  C   UNL     1      45.962  11.627  16.577  0.00  0.00    +0.502 C 
ATOM     56  O   UNL     1      46.022  11.012  15.525  0.00  0.00    -0.687 OA
ATOM     57  O   UNL     1      44.906  12.120  16.935  0.00  0.00    -0.668 OA
ENDBRANCH  54  55
ENDBRANCH  53  54
ENDBRANCH  52  53
ENDBRANCH   6   5
ENDBRANCH   8   7
ENDBRANCH   9   8
ENDBRANCH  10   9
ENDBRANCH  11  10
ENDBRANCH  12  11
ENDBRANCH  13  12
ENDBRANCH  14  13
ENDBRANCH  15  14
ENDBRANCH  16  15
ENDBRANCH  17  16
ENDBRANCH  18  17
ENDBRANCH  19  18
ENDBRANCH  20  19
BRANCH  20  21
ATOM     21  C   UNL     1      44.726  22.000  19.482  0.00  0.00    -0.000 C 
BRANCH  21  22
ATOM     22  C   UNL     1      43.894  21.011  20.300  0.00  0.00    -0.000 C 
BRANCH  22  23
ATOM     23  C   UNL     1      42.631  20.640  19.519  0.00  0.00    -0.000 C 
BRANCH  23  24
ATOM     24  C   UNL     1      42.168  19.242  19.934  0.00  0.00    -0.000 C 
BRANCH  24  25
ATOM     25  C   UNL     1      42.290  19.094  21.451  0.00  0.00    -0.001 C 
BRANCH  25  26
ATOM     26  C   UNL     1      42.926  17.742  21.782  0.00  0.00    +0.000 C 
BRANCH  26  27
ATOM     27  C   UNL     1      44.339  17.964  22.325  0.00  0.00    -0.001 C 
BRANCH  27  28
ATOM     28  C   UNL     1      45.262  16.854  21.814  0.00  0.00    +0.002 C 
BRANCH  28  29
ATOM     29  C   UNL     1      44.739  16.334  20.474  0.00  0.00    +0.004 C 
BRANCH  29  30
ATOM     30  C   UNL     1      45.605  15.161  20.010  0.00  0.00    +0.009 C 
BRANCH  30  31
ATOM     31  C   UNL     1      46.508  14.708  21.160  0.00  0.00    +0.033 C 
BRANCH  31  32
ATOM     32  C   UNL     1      47.864  14.273  20.602  0.00  0.00    +0.096 C 
BRANCH  32  33
ATOM     33  C   UNL     1      48.967  14.917  21.403  0.00  0.00    +0.459 C 
ATOM     48  O   UNL     1      48.710  15.810  22.176  0.00  0.00    -0.520 OA
BRANCH  33  34
ATOM     34  O   UNL     1      50.234  14.500  21.257  0.00  0.00    -0.337 OA
BRANCH  34  35
ATOM     35  C   UNL     1      51.113  15.345  20.512  0.00  0.00    +0.198 C 
BRANCH  35  36
ATOM     36  C   UNL     1      52.505  14.710  20.456  0.00  0.00    +0.156 C 
BRANCH  36  37
ATOM     37  O   UNL     1      53.498  15.724  20.609  0.00  0.00    -0.334 OA
BRANCH  37  38
ATOM     38  C   UNL     1      54.342  15.889  19.467  0.00  0.00    +0.095 C 
BRANCH  38  39
ATOM     39  C   UNL     1      55.776  15.654  19.863  0.00  0.00    +0.501 C 
ATOM     40  O   UNL     1      56.539  15.096  19.092  0.00  0.00    -0.708 OA
ATOM     41  O   UNL     1      56.176  16.021  20.955  0.00  0.00    -0.676 OA
ENDBRANCH  38  39
ENDBRANCH  37  38
ENDBRANCH  36  37
BRANCH  36  42
ATOM     42  C   UNL     1      52.643  13.686  21.585  0.00  0.00    +0.164 C 
BRANCH  42  43
ATOM     43  O   UNL     1      53.345  12.538  21.104  0.00  0.00    -0.343 OA
BRANCH  43  44
ATOM     44  C   UNL     1      52.543  11.358  21.023  0.00  0.00    +0.081 C 
BRANCH  44  45
ATOM     45  C   UNL     1      52.027  11.197  19.616  0.00  0.00    +0.499 C 
ATOM     46  O   UNL     1      52.806  11.187  18.679  0.00  0.00    -0.708 OA
ATOM     47  O   UNL     1      50.831  11.079  19.416  0.00  0.00    -0.668 OA
ENDBRANCH  44  45
ENDBRANCH  43  44
ENDBRANCH  42  43
ENDBRANCH  36  42
ENDBRANCH  35  36
ENDBRANCH  34  35
ENDBRANCH  33  34
ENDBRANCH  32  33
ENDBRANCH  31  32
ENDBRANCH  30  31
ENDBRANCH  29  30
ENDBRANCH  28  29
ENDBRANCH  27  28
ENDBRANCH  26  27
ENDBRANCH  25  26
ENDBRANCH  24  25
ENDBRANCH  23  24
ENDBRANCH  22  23
ENDBRANCH  21  22
ENDBRANCH  20  21
TORSDOF 41
ENDMDL
MODEL 2
REMARK VINA RESULT:      -4.0      2.797      7.964
REMARK  Name = ZINC95486338
REMARK  42 active torsions:
REMARK  status: ('A' for Active; 'I' for Inactive)
REMARK    1  A    between atoms: C1_1  and  O1_2
REMARK    2  A    between atoms: O1_2  and  C2_3
REMARK    3  A    between atoms: C4_5  and  C10_14
REMARK    4  A    between atoms: C7_8  and  O2_9
REMARK    5  A    between atoms: O2_9  and  C8_10
REMARK    6  A    between atoms: C8_10  and  C9_11
REMARK    7  A    between atoms: C11_15  and  C12_16
REMARK    8  A    between atoms: C12_16  and  O6_18
REMARK    9  A    between atoms: O6_18  and  C13_19
REMARK   10  A    between atoms: C13_19  and  C14_20
REMARK   11  A    between atoms: C14_20  and  C15_21
REMARK   12  A    between atoms: C15_21  and  C16_22
REMARK   13  A    between atoms: C16_22  and  C17_23
REMARK   14  A    between atoms: C17_23  and  C18_24
REMARK   15  A    between atoms: C18_24  and  C19_25
REMARK   16  A    between atoms: C19_25  and  C20_26
REMARK   17  A    between atoms: C20_26  and  C21_27
REMARK   18  A    between atoms: C21_27  and  C22_28
REMARK   19  A    between atoms: C22_28  and  C23_29
REMARK   20  A    between atoms: C23_29  and  C24_30
REMARK   21  A    between atoms: C24_30  and  C25_31
REMARK   22  A    between atoms: C25_31  and  C26_32
REMARK   23  A    between atoms: C26_32  and  C27_33
REMARK   24  A    between atoms: C27_33  and  C28_34
REMARK   25  A    between atoms: C28_34  and  C29_35
REMARK   26  A    between atoms: C29_35  and  C30_36
REMARK   27  A    between atoms: C30_36  and  C31_37
REMARK   28  A    between atoms: C31_37  and  C32_38
REMARK   29  A    between atoms: C32_38  and  C33_39
REMARK   30  A    between atoms: C33_39  and  C34_40
REMARK   31  A    between atoms: C34_40  and  C35_41
REMARK   32  A    between atoms: C35_41  and  C36_42
REMARK   33  A    between atoms: C36_42  and  O8_44
REMARK   34  A    between atoms: O8_44  and  C37_45
REMARK   35  A    between atoms: C37_45  and  C38_46
REMARK   36  A    between atoms: C38_46  and  C39_48
REMARK   37  A    between atoms: C38_46  and  O12_54
REMARK   38  A    between atoms: C39_48  and  O9_49
REMARK   39  A    between atoms: O9_49  and  C40_50
REMARK   40  A    between atoms: C40_50  and  C41_51
REMARK   41  A    between atoms: O12_54  and  C42_55
REMARK   42  A    between atoms: C42_55  and  C43_56
REMARK                            x       y       z     vdW  Elec       q    Type
REMARK                         _______ _______ _______ _____ _____    ______ ____
ROOT
ATOM     20  C   UNL     1      51.437  18.085  16.757  0.00  0.00    -0.000 C 
ENDROOT
BRANCH  20  19
ATOM     19  C   UNL     1      52.276  17.672  17.969  0.00  0.00    -0.000 C 
BRANCH  19  18
ATOM     18  C   UNL     1      51.367  17.052  19.032  0.00  0.00    -0.000 C 
BRANCH  18  17
ATOM     17  C   UNL     1      51.696  17.655  20.399  0.00  0.00    -0.000 C 
BRANCH  17  16
ATOM     16  C   UNL     1      52.093  16.539  21.366  0.00  0.00    +0.000 C 
BRANCH  16  15
ATOM     15  C   UNL     1      51.581  15.198  20.838  0.00  0.00    +0.001 C 
BRANCH  15  14
ATOM     14  C   UNL     1      51.518  14.187  21.984  0.00  0.00    +0.002 C 
BRANCH  14  13
ATOM     13  C   UNL     1      50.165  13.474  21.962  0.00  0.00    +0.008 C 
BRANCH  13  12
ATOM     12  C   UNL     1      49.112  14.402  21.353  0.00  0.00    +0.013 C 
BRANCH  12  11
ATOM     11  C   UNL     1      48.201  13.597  20.423  0.00  0.00    +0.029 C 
BRANCH  11  10
ATOM     10  C   UNL     1      47.113  12.905  21.247  0.00  0.00    +0.198 C 
BRANCH  10   9
ATOM      9  O   UNL     1      46.073  13.838  21.542  0.00  0.00    -0.352 OA
BRANCH   9   8
ATOM      8  C   UNL     1      45.287  14.226  20.514  0.00  0.00    +0.506 C 
ATOM     49  O   UNL     1      44.752  13.391  19.810  0.00  0.00    -0.524 OA
BRANCH   8   7
ATOM      6  C   UNL     1      44.793  16.446  21.273  0.00  0.00    +0.174 C 
ATOM      7  C   UNL     1      45.087  15.605  20.257  0.00  0.00    -0.097 C 
BRANCH   6   5
ATOM      3  C   UNL     1      43.496  19.629  19.770  0.00  0.00    +0.084 A 
ATOM      4  C   UNL     1      43.685  18.282  20.016  0.00  0.00    -0.003 A 
ATOM      5  C   UNL     1      44.587  17.876  21.007  0.00  0.00    -0.118 A 
ATOM     50  C   UNL     1      45.290  18.836  21.743  0.00  0.00    +0.059 A 
ATOM     51  C   UNL     1      45.095  20.176  21.492  0.00  0.00    -0.053 A 
ATOM     52  C   UNL     1      44.205  20.578  20.504  0.00  0.00    +0.143 A 
BRANCH   3   2
ATOM      1  C   UNL     1      41.249  19.672  18.992  0.00  0.00    +0.229 C 
ATOM      2  O   UNL     1      42.621  20.027  18.808  0.00  0.00    -0.296 OA
ENDBRANCH   3   2
BRANCH  52  53
ATOM     53  O   UNL     1      44.020  21.901  20.258  0.00  0.00    -0.263 OA
BRANCH  53  54
ATOM     54  C   UNL     1      44.716  22.821  21.101  0.00  0.00    +0.113 C 
BRANCH  54  55
ATOM     55  C   UNL     1      45.114  24.033  20.300  0.00  0.00    +0.502 C 
ATOM     56  O   UNL     1      45.838  24.881  20.795  0.00  0.00    -0.687 OA
ATOM     57  O   UNL     1      44.712  24.168  19.157  0.00  0.00    -0.668 OA
ENDBRANCH  54  55
ENDBRANCH  53  54
ENDBRANCH  52  53
ENDBRANCH   6   5
ENDBRANCH   8   7
ENDBRANCH   9   8
ENDBRANCH  10   9
ENDBRANCH  11  10
ENDBRANCH  12  11
ENDBRANCH  13  12
ENDBRANCH  14  13
ENDBRANCH  15  14
ENDBRANCH  16  15
ENDBRANCH  17  16
ENDBRANCH  18  17
ENDBRANCH  19  18
ENDBRANCH  20  19
BRANCH  20  21
ATOM     21  C   UNL     1      51.157  19.588  16.818  0.00  0.00    -0.000 C 
BRANCH  21  22
ATOM     22  C   UNL     1      52.281  20.285  17.587  0.00  0.00    -0.000 C 
BRANCH  22  23
ATOM     23  C   UNL     1      51.678  21.158  18.690  0.00  0.00    -0.000 C 
BRANCH  23  24
ATOM     24  C   UNL     1      50.185  20.853  18.823  0.00  0.00    -0.000 C 
BRANCH  24  25
ATOM     25  C   UNL     1      49.809  20.778  20.304  0.00  0.00    -0.001 C 
BRANCH  25  26
ATOM     26  C   UNL     1      48.662  19.782  20.489  0.00  0.00    +0.000 C 
BRANCH  26  27
ATOM     27  C   UNL     1      48.208  19.268  19.122  0.00  0.00    -0.001 C 
BRANCH  27  28
ATOM     28  C   UNL     1      47.855  17.782  19.227  0.00  0.00    +0.002 C 
BRANCH  28  29
ATOM     29  C   UNL     1      47.146  17.334  17.947  0.00  0.00    +0.004 C 
BRANCH  29  30
ATOM     30  C   UNL     1      48.171  16.742  16.979  0.00  0.00    +0.009 C 
BRANCH  30  31
ATOM     31  C   UNL     1      48.192  15.219  17.126  0.00  0.00    +0.033 C 
BRANCH  31  32
ATOM     32  C   UNL     1      46.788  14.663  16.880  0.00  0.00    +0.096 C 
BRANCH  32  33
ATOM     33  C   UNL     1      46.832  13.157  16.917  0.00  0.00    +0.459 C 
ATOM     48  O   UNL     1      45.805  12.521  16.867  0.00  0.00    -0.520 OA
BRANCH  33  34
ATOM     34  O   UNL     1      48.011  12.522  17.007  0.00  0.00    -0.337 OA
BRANCH  34  35
ATOM     35  C   UNL     1      48.351  11.632  15.942  0.00  0.00    +0.198 C 
BRANCH  35  36
ATOM     36  C   UNL     1      49.844  11.304  16.009  0.00  0.00    +0.156 C 
BRANCH  36  37
ATOM     37  O   UNL     1      50.413  11.399  14.703  0.00  0.00    -0.334 OA
BRANCH  37  38
ATOM     38  C   UNL     1      49.917  12.496  13.931  0.00  0.00    +0.095 C 
BRANCH  38  39
ATOM     39  C   UNL     1      51.062  13.167  13.218  0.00  0.00    +0.501 C 
ATOM     40  O   UNL     1      51.042  13.279  12.003  0.00  0.00    -0.708 OA
ATOM     41  O   UNL     1      52.009  13.598  13.854  0.00  0.00    -0.676 OA
ENDBRANCH  38  39
ENDBRANCH  37  38
ENDBRANCH  36  37
BRANCH  36  42
ATOM     42  C   UNL     1      50.542  12.296  16.942  0.00  0.00    +0.164 C 
BRANCH  42  43
ATOM     43  O   UNL     1      51.916  11.931  17.085  0.00  0.00    -0.343 OA
BRANCH  43  44
ATOM     44  C   UNL     1      52.588  12.601  18.153  0.00  0.00    +0.081 C 
BRANCH  44  45
ATOM     45  C   UNL     1      53.613  11.678  18.759  0.00  0.00    +0.499 C 
ATOM     46  O   UNL     1      54.586  12.138  19.332  0.00  0.00    -0.708 OA
ATOM     47  O   UNL     1      53.471  10.470  18.675  0.00  0.00    -0.668 OA
ENDBRANCH  44  45
ENDBRANCH  43  44
ENDBRANCH  42  43
ENDBRANCH  36  42
ENDBRANCH  35  36
ENDBRANCH  34  35
ENDBRANCH  33  34
ENDBRANCH  32  33
ENDBRANCH  31  32
ENDBRANCH  30  31
ENDBRANCH  29  30
ENDBRANCH  28  29
ENDBRANCH  27  28
ENDBRANCH  26  27
ENDBRANCH  25  26
ENDBRANCH  24  25
ENDBRANCH  23  24
ENDBRANCH  22  23
ENDBRANCH  21  22
ENDBRANCH  20  21
TORSDOF 41
ENDMDL
MODEL 3
REMARK VINA RESULT:      -3.8      0.946      2.314
REMARK  Name = ZINC95486338
REMARK  42 active torsions:
REMARK  status: ('A' for Active; 'I' for Inactive)
REMARK    1  A    between atoms: C1_1  and  O1_2
REMARK    2  A    between atoms: O1_2  and  C2_3
REMARK    3  A    between atoms: C4_5  and  C10_14
REMARK    4  A    between atoms: C7_8  and  O2_9
REMARK    5  A    between atoms: O2_9  and  C8_10
REMARK    6  A    between atoms: C8_10  and  C9_11
REMARK    7  A    between atoms: C11_15  and  C12_16
REMARK    8  A    between atoms: C12_16  and  O6_18
REMARK    9  A    between atoms: O6_18  and  C13_19
REMARK   10  A    between atoms: C13_19  and  C14_20
REMARK   11  A    between atoms: C14_20  and  C15_21
REMARK   12  A    between atoms: C15_21  and  C16_22
REMARK   13  A    between atoms: C16_22  and  C17_23
REMARK   14  A    between atoms: C17_23  and  C18_24
REMARK   15  A    between atoms: C18_24  and  C19_25
REMARK   16  A    between atoms: C19_25  and  C20_26
REMARK   17  A    between atoms: C20_26  and  C21_27
REMARK   18  A    between atoms: C21_27  and  C22_28
REMARK   19  A    between atoms: C22_28  and  C23_29
REMARK   20  A    between atoms: C23_29  and  C24_30
REMARK   21  A    between atoms: C24_30  and  C25_31
REMARK   22  A    between atoms: C25_31  and  C26_32
REMARK   23  A    between atoms: C26_32  and  C27_33
REMARK   24  A    between atoms: C27_33  and  C28_34
REMARK   25  A    between atoms: C28_34  and  C29_35
REMARK   26  A    between atoms: C29_35  and  C30_36
REMARK   27  A    between atoms: C30_36  and  C31_37
REMARK   28  A    between atoms: C31_37  and  C32_38
REMARK   29  A    between atoms: C32_38  and  C33_39
REMARK   30  A    between atoms: C33_39  and  C34_40
REMARK   31  A    between atoms: C34_40  and  C35_41
REMARK   32  A    between atoms: C35_41  and  C36_42
REMARK   33  A    between atoms: C36_42  and  O8_44
REMARK   34  A    between atoms: O8_44  and  C37_45
REMARK   35  A    between atoms: C37_45  and  C38_46
REMARK   36  A    between atoms: C38_46  and  C39_48
REMARK   37  A    between atoms: C38_46  and  O12_54
REMARK   38  A    between atoms: C39_48  and  O9_49
REMARK   39  A    between atoms: O9_49  and  C40_50
REMARK   40  A    between atoms: C40_50  and  C41_51
REMARK   41  A    between atoms: O12_54  and  C42_55
REMARK   42  A    between atoms: C42_55  and  C43_56
REMARK                            x       y       z     vdW  Elec       q    Type
REMARK                         _______ _______ _______ _____ _____    ______ ____
ROOT
ATOM     20  C   UNL     1      45.840  21.144  18.758  0.00  0.00    -0.000 C 
ENDROOT
BRANCH  20  19
ATOM     19  C   UNL     1      45.808  19.691  19.236  0.00  0.00    -0.000 C 
BRANCH  19  18
ATOM     18  C   UNL     1      46.038  18.757  18.047  0.00  0.00    -0.000 C 
BRANCH  18  17
ATOM     17  C   UNL     1      47.360  18.008  18.234  0.00  0.00    -0.000 C 
BRANCH  17  16
ATOM     16  C   UNL     1      47.780  18.075  19.704  0.00  0.00    +0.000 C 
BRANCH  16  15
ATOM     15  C   UNL     1      49.302  18.198  19.794  0.00  0.00    +0.001 C 
BRANCH  15  14
ATOM     14  C   UNL     1      49.667  19.366  20.712  0.00  0.00    +0.002 C 
BRANCH  14  13
ATOM     13  C   UNL     1      49.246  20.682  20.055  0.00  0.00    +0.008 C 
BRANCH  13  12
ATOM     12  C   UNL     1      50.222  21.022  18.927  0.00  0.00    +0.013 C 
BRANCH  12  11
ATOM     11  C   UNL     1      51.635  21.164  19.500  0.00  0.00    +0.029 C 
BRANCH  11  10
ATOM     10  C   UNL     1      52.659  20.756  18.440  0.00  0.00    +0.198 C 
BRANCH  10   9
ATOM      9  O   UNL     1      52.427  19.401  18.050  0.00  0.00    -0.352 OA
BRANCH   9   8
ATOM      8  C   UNL     1      52.111  19.182  16.756  0.00  0.00    +0.506 C 
ATOM     49  O   UNL     1      52.339  20.036  15.921  0.00  0.00    -0.524 OA
BRANCH   8   7
ATOM      6  C   UNL     1      51.376  16.960  17.274  0.00  0.00    +0.174 C 
ATOM      7  C   UNL     1      51.512  17.956  16.372  0.00  0.00    -0.097 C 
BRANCH   6   5
ATOM      3  C   UNL     1      50.829  13.635  15.624  0.00  0.00    +0.084 A 
ATOM      4  C   UNL     1      51.418  14.829  15.994  0.00  0.00    -0.003 A 
ATOM      5  C   UNL     1      50.754  15.689  16.876  0.00  0.00    -0.118 A 
ATOM     50  C   UNL     1      49.497  15.334  17.379  0.00  0.00    +0.059 A 
ATOM     51  C   UNL     1      48.917  14.143  17.005  0.00  0.00    -0.053 A 
ATOM     52  C   UNL     1      49.574  13.292  16.125  0.00  0.00    +0.143 A 
BRANCH   3   2
ATOM      1  C   UNL     1      52.223  13.400  13.711  0.00  0.00    +0.229 C 
ATOM      2  O   UNL     1      51.471  12.797  14.766  0.00  0.00    -0.296 OA
ENDBRANCH   3   2
BRANCH  52  53
ATOM     53  O   UNL     1      48.994  12.121  15.756  0.00  0.00    -0.263 OA
BRANCH  53  54
ATOM     54  C   UNL     1      47.982  11.599  16.618  0.00  0.00    +0.113 C 
BRANCH  54  55
ATOM     55  C   UNL     1      46.732  11.331  15.820  0.00  0.00    +0.502 C 
ATOM     56  O   UNL     1      45.693  11.044  16.391  0.00  0.00    -0.687 OA
ATOM     57  O   UNL     1      46.759  11.400  14.603  0.00  0.00    -0.668 OA
ENDBRANCH  54  55
ENDBRANCH  53  54
ENDBRANCH  52  53
ENDBRANCH   6   5
ENDBRANCH   8   7
ENDBRANCH   9   8
ENDBRANCH  10   9
ENDBRANCH  11  10
ENDBRANCH  12  11
ENDBRANCH  13  12
ENDBRANCH  14  13
ENDBRANCH  15  14
ENDBRANCH  16  15
ENDBRANCH  17  16
ENDBRANCH  18  17
ENDBRANCH  19  18
ENDBRANCH  20  19
BRANCH  20  21
ATOM     21  C   UNL     1      44.724  21.933  19.445  0.00  0.00    -0.000 C 
BRANCH  21  22
ATOM     22  C   UNL     1      43.863  20.980  20.275  0.00  0.00    -0.000 C 
BRANCH  22  23
ATOM     23  C   UNL     1      42.603  20.613  19.488  0.00  0.00    -0.000 C 
BRANCH  23  24
ATOM     24  C   UNL     1      42.042  19.290  20.011  0.00  0.00    -0.000 C 
BRANCH  24  25
ATOM     25  C   UNL     1      42.349  19.161  21.504  0.00  0.00    -0.001 C 
BRANCH  25  26
ATOM     26  C   UNL     1      42.850  17.746  21.801  0.00  0.00    +0.000 C 
BRANCH  26  27
ATOM     27  C   UNL     1      44.332  17.800  22.180  0.00  0.00    -0.001 C 
BRANCH  27  28
ATOM     28  C   UNL     1      44.997  16.466  21.831  0.00  0.00    +0.002 C 
BRANCH  28  29
ATOM     29  C   UNL     1      44.754  16.148  20.354  0.00  0.00    +0.004 C 
BRANCH  29  30
ATOM     30  C   UNL     1      45.676  15.006  19.922  0.00  0.00    +0.009 C 
BRANCH  30  31
ATOM     31  C   UNL     1      46.564  14.594  21.098  0.00  0.00    +0.033 C 
BRANCH  31  32
ATOM     32  C   UNL     1      47.954  14.219  20.582  0.00  0.00    +0.096 C 
BRANCH  32  33
ATOM     33  C   UNL     1      49.002  14.795  21.499  0.00  0.00    +0.459 C 
ATOM     48  O   UNL     1      48.706  15.662  22.287  0.00  0.00    -0.520 OA
BRANCH  33  34
ATOM     34  O   UNL     1      50.265  14.344  21.440  0.00  0.00    -0.337 OA
BRANCH  34  35
ATOM     35  C   UNL     1      51.188  15.101  20.653  0.00  0.00    +0.198 C 
BRANCH  35  36
ATOM     36  C   UNL     1      52.503  14.329  20.527  0.00  0.00    +0.156 C 
BRANCH  36  37
ATOM     37  O   UNL     1      52.653  13.859  19.187  0.00  0.00    -0.334 OA
BRANCH  37  38
ATOM     38  C   UNL     1      52.025  12.598  18.939  0.00  0.00    +0.095 C 
BRANCH  38  39
ATOM     39  C   UNL     1      53.072  11.516  18.889  0.00  0.00    +0.501 C 
ATOM     40  O   UNL     1      52.774  10.397  18.507  0.00  0.00    -0.708 OA
ATOM     41  O   UNL     1      54.217  11.759  19.229  0.00  0.00    -0.676 OA
ENDBRANCH  38  39
ENDBRANCH  37  38
ENDBRANCH  36  37
BRANCH  36  42
ATOM     42  C   UNL     1      53.672  15.253  20.877  0.00  0.00    +0.164 C 
BRANCH  42  43
ATOM     43  O   UNL     1      54.580  15.310  19.776  0.00  0.00    -0.343 OA
BRANCH  43  44
ATOM     44  C   UNL     1      55.883  15.785  20.121  0.00  0.00    +0.081 C 
BRANCH  44  45
ATOM     45  C   UNL     1      56.857  14.635  20.112  0.00  0.00    +0.499 C 
ATOM     46  O   UNL     1      56.714  13.721  19.318  0.00  0.00    -0.708 OA
ATOM     47  O   UNL     1      57.786  14.617  20.901  0.00  0.00    -0.668 OA
ENDBRANCH  44  45
ENDBRANCH  43  44
ENDBRANCH  42  43
ENDBRANCH  36  42
ENDBRANCH  35  36
ENDBRANCH  34  35
ENDBRANCH  33  34
ENDBRANCH  32  33
ENDBRANCH  31  32
ENDBRANCH  30  31
ENDBRANCH  29  30
ENDBRANCH  28  29
ENDBRANCH  27  28
ENDBRANCH  26  27
ENDBRANCH  25  26
ENDBRANCH  24  25
ENDBRANCH  23  24
ENDBRANCH  22  23
ENDBRANCH  21  22
ENDBRANCH  20  21
TORSDOF 41
ENDMDL
MODEL 4
REMARK VINA RESULT:      -3.6      2.515      7.469
REMARK  Name = ZINC95486338
REMARK  42 active torsions:
REMARK  status: ('A' for Active; 'I' for Inactive)
REMARK    1  A    between atoms: C1_1  and  O1_2
REMARK    2  A    between atoms: O1_2  and  C2_3
REMARK    3  A    between atoms: C4_5  and  C10_14
REMARK    4  A    between atoms: C7_8  and  O2_9
REMARK    5  A    between atoms: O2_9  and  C8_10
REMARK    6  A    between atoms: C8_10  and  C9_11
REMARK    7  A    between atoms: C11_15  and  C12_16
REMARK    8  A    between atoms: C12_16  and  O6_18
REMARK    9  A    between atoms: O6_18  and  C13_19
REMARK   10  A    between atoms: C13_19  and  C14_20
REMARK   11  A    between atoms: C14_20  and  C15_21
REMARK   12  A    between atoms: C15_21  and  C16_22
REMARK   13  A    between atoms: C16_22  and  C17_23
REMARK   14  A    between atoms: C17_23  and  C18_24
REMARK   15  A    between atoms: C18_24  and  C19_25
REMARK   16  A    between atoms: C19_25  and  C20_26
REMARK   17  A    between atoms: C20_26  and  C21_27
REMARK   18  A    between atoms: C21_27  and  C22_28
REMARK   19  A    between atoms: C22_28  and  C23_29
REMARK   20  A    between atoms: C23_29  and  C24_30
REMARK   21  A    between atoms: C24_30  and  C25_31
REMARK   22  A    between atoms: C25_31  and  C26_32
REMARK   23  A    between atoms: C26_32  and  C27_33
REMARK   24  A    between atoms: C27_33  and  C28_34
REMARK   25  A    between atoms: C28_34  and  C29_35
REMARK   26  A    between atoms: C29_35  and  C30_36
REMARK   27  A    between atoms: C30_36  and  C31_37
REMARK   28  A    between atoms: C31_37  and  C32_38
REMARK   29  A    between atoms: C32_38  and  C33_39
REMARK   30  A    between atoms: C33_39  and  C34_40
REMARK   31  A    between atoms: C34_40  and  C35_41
REMARK   32  A    between atoms: C35_41  and  C36_42
REMARK   33  A    between atoms: C36_42  and  O8_44
REMARK   34  A    between atoms: O8_44  and  C37_45
REMARK   35  A    between atoms: C37_45  and  C38_46
REMARK   36  A    between atoms: C38_46  and  C39_48
REMARK   37  A    between atoms: C38_46  and  O12_54
REMARK   38  A    between atoms: C39_48  and  O9_49
REMARK   39  A    between atoms: O9_49  and  C40_50
REMARK   40  A    between atoms: C40_50  and  C41_51
REMARK   41  A    between atoms: O12_54  and  C42_55
REMARK   42  A    between atoms: C42_55  and  C43_56
REMARK                            x       y       z     vdW  Elec       q    Type
REMARK                         _______ _______ _______ _____ _____    ______ ____
ROOT
ATOM     20  C   UNL     1      46.225  16.857  18.129  0.00  0.00    -0.000 C 
ENDROOT
BRANCH  20  19
ATOM     19  C   UNL     1      45.368  17.652  19.116  0.00  0.00    -0.000 C 
BRANCH  19  18
ATOM     18  C   UNL     1      46.096  17.757  20.457  0.00  0.00    -0.000 C 
BRANCH  18  17
ATOM     17  C   UNL     1      45.097  17.553  21.598  0.00  0.00    -0.000 C 
BRANCH  17  16
ATOM     16  C   UNL     1      44.879  18.879  22.329  0.00  0.00    +0.000 C 
BRANCH  16  15
ATOM     15  C   UNL     1      43.658  19.590  21.744  0.00  0.00    +0.001 C 
BRANCH  15  14
ATOM     14  C   UNL     1      42.396  18.784  22.061  0.00  0.00    +0.002 C 
BRANCH  14  13
ATOM     13  C   UNL     1      41.434  18.855  20.874  0.00  0.00    +0.008 C 
BRANCH  13  12
ATOM     12  C   UNL     1      42.098  19.617  19.725  0.00  0.00    +0.013 C 
BRANCH  12  11
ATOM     11  C   UNL     1      41.047  20.459  18.997  0.00  0.00    +0.029 C 
BRANCH  11  10
ATOM     10  C   UNL     1      41.613  21.851  18.716  0.00  0.00    +0.198 C 
BRANCH  10   9
ATOM      9  O   UNL     1      42.466  22.245  19.793  0.00  0.00    -0.352 OA
BRANCH   9   8
ATOM      8  C   UNL     1      43.506  23.051  19.487  0.00  0.00    +0.506 C 
ATOM     49  O   UNL     1      43.318  24.072  18.854  0.00  0.00    -0.524 OA
BRANCH   8   7
ATOM      6  C   UNL     1      45.424  21.616  19.385  0.00  0.00    +0.174 C 
ATOM      7  C   UNL     1      44.815  22.705  19.905  0.00  0.00    -0.097 C 
BRANCH   6   5
ATOM      3  C   UNL     1      48.945  20.322  19.328  0.00  0.00    +0.084 A 
ATOM      4  C   UNL     1      47.669  20.658  18.916  0.00  0.00    -0.003 A 
ATOM      5  C   UNL     1      46.782  21.257  19.817  0.00  0.00    -0.118 A 
ATOM     50  C   UNL     1      47.191  21.513  21.131  0.00  0.00    +0.059 A 
ATOM     51  C   UNL     1      48.465  21.175  21.533  0.00  0.00    -0.053 A 
ATOM     52  C   UNL     1      49.343  20.576  20.639  0.00  0.00    +0.143 A 
BRANCH   3   2
ATOM      1  C   UNL     1      49.564  18.375  18.111  0.00  0.00    +0.229 C 
ATOM      2  O   UNL     1      49.809  19.740  18.454  0.00  0.00    -0.296 OA
ENDBRANCH   3   2
BRANCH  52  53
ATOM     53  O   UNL     1      50.595  20.241  21.044  0.00  0.00    -0.263 OA
BRANCH  53  54
ATOM     54  C   UNL     1      50.756  18.971  21.676  0.00  0.00    +0.113 C 
BRANCH  54  55
ATOM     55  C   UNL     1      52.116  18.413  21.346  0.00  0.00    +0.502 C 
ATOM     56  O   UNL     1      52.282  17.779  20.317  0.00  0.00    -0.687 OA
ATOM     57  O   UNL     1      53.051  18.596  22.107  0.00  0.00    -0.668 OA
ENDBRANCH  54  55
ENDBRANCH  53  54
ENDBRANCH  52  53
ENDBRANCH   6   5
ENDBRANCH   8   7
ENDBRANCH   9   8
ENDBRANCH  10   9
ENDBRANCH  11  10
ENDBRANCH  12  11
ENDBRANCH  13  12
ENDBRANCH  14  13
ENDBRANCH  15  14
ENDBRANCH  16  15
ENDBRANCH  17  16
ENDBRANCH  18  17
ENDBRANCH  19  18
ENDBRANCH  20  19
BRANCH  20  21
ATOM     21  C   UNL     1      46.708  15.567  18.796  0.00  0.00    -0.000 C 
BRANCH  21  22
ATOM     22  C   UNL     1      45.502  14.706  19.173  0.00  0.00    -0.000 C 
BRANCH  22  23
ATOM     23  C   UNL     1      45.857  13.227  18.996  0.00  0.00    -0.000 C 
BRANCH  23  24
ATOM     24  C   UNL     1      47.283  12.982  19.493  0.00  0.00    -0.000 C 
BRANCH  24  25
ATOM     25  C   UNL     1      47.956  11.928  18.612  0.00  0.00    -0.001 C 
BRANCH  25  26
ATOM     26  C   UNL     1      46.957  11.419  17.572  0.00  0.00    +0.000 C 
BRANCH  26  27
ATOM     27  C   UNL     1      47.623  11.395  16.194  0.00  0.00    -0.001 C 
BRANCH  27  28
ATOM     28  C   UNL     1      47.823  12.829  15.699  0.00  0.00    +0.002 C 
BRANCH  28  29
ATOM     29  C   UNL     1      49.075  12.896  14.823  0.00  0.00    +0.004 C 
BRANCH  29  30
ATOM     30  C   UNL     1      50.235  13.473  15.635  0.00  0.00    +0.009 C 
BRANCH  30  31
ATOM     31  C   UNL     1      49.687  14.415  16.709  0.00  0.00    +0.033 C 
BRANCH  31  32
ATOM     32  C   UNL     1      50.843  14.954  17.554  0.00  0.00    +0.096 C 
BRANCH  32  33
ATOM     33  C   UNL     1      50.719  14.435  18.964  0.00  0.00    +0.459 C 
ATOM     48  O   UNL     1      50.171  15.103  19.808  0.00  0.00    -0.520 OA
BRANCH  33  34
ATOM     34  O   UNL     1      51.218  13.229  19.280  0.00  0.00    -0.337 OA
BRANCH  34  35
ATOM     35  C   UNL     1      52.544  12.939  18.832  0.00  0.00    +0.198 C 
BRANCH  35  36
ATOM     36  C   UNL     1      53.018  11.626  19.461  0.00  0.00    +0.156 C 
BRANCH  36  37
ATOM     37  O   UNL     1      52.731  10.543  18.576  0.00  0.00    -0.334 OA
BRANCH  37  38
ATOM     38  C   UNL     1      53.605  10.467  17.447  0.00  0.00    +0.095 C 
BRANCH  38  39
ATOM     39  C   UNL     1      52.788  10.351  16.187  0.00  0.00    +0.501 C 
ATOM     40  O   UNL     1      53.342  10.329  15.100  0.00  0.00    -0.708 OA
ATOM     41  O   UNL     1      51.573  10.277  16.252  0.00  0.00    -0.676 OA
ENDBRANCH  38  39
ENDBRANCH  37  38
ENDBRANCH  36  37
BRANCH  36  42
ATOM     42  C   UNL     1      54.527  11.696  19.709  0.00  0.00    +0.164 C 
BRANCH  42  43
ATOM     43  O   UNL     1      54.991  13.023  19.452  0.00  0.00    -0.343 OA
BRANCH  43  44
ATOM     44  C   UNL     1      55.656  13.632  20.561  0.00  0.00    +0.081 C 
BRANCH  44  45
ATOM     45  C   UNL     1      56.115  15.014  20.175  0.00  0.00    +0.499 C 
ATOM     46  O   UNL     1      56.109  15.911  21.000  0.00  0.00    -0.708 OA
ATOM     47  O   UNL     1      56.489  15.236  19.036  0.00  0.00    -0.668 OA
ENDBRANCH  44  45
ENDBRANCH  43  44
ENDBRANCH  42  43
ENDBRANCH  36  42
ENDBRANCH  35  36
ENDBRANCH  34  35
ENDBRANCH  33  34
ENDBRANCH  32  33
ENDBRANCH  31  32
ENDBRANCH  30  31
ENDBRANCH  29  30
ENDBRANCH  28  29
ENDBRANCH  27  28
ENDBRANCH  26  27
ENDBRANCH  25  26
ENDBRANCH  24  25
ENDBRANCH  23  24
ENDBRANCH  22  23
ENDBRANCH  21  22
ENDBRANCH  20  21
TORSDOF 41
ENDMDL
MODEL 5
REMARK VINA RESULT:      -3.5      2.284      6.003
REMARK  Name = ZINC95486338
REMARK  42 active torsions:
REMARK  status: ('A' for Active; 'I' for Inactive)
REMARK    1  A    between atoms: C1_1  and  O1_2
REMARK    2  A    between atoms: O1_2  and  C2_3
REMARK    3  A    between atoms: C4_5  and  C10_14
REMARK    4  A    between atoms: C7_8  and  O2_9
REMARK    5  A    between atoms: O2_9  and  C8_10
REMARK    6  A    between atoms: C8_10  and  C9_11
REMARK    7  A    between atoms: C11_15  and  C12_16
REMARK    8  A    between atoms: C12_16  and  O6_18
REMARK    9  A    between atoms: O6_18  and  C13_19
REMARK   10  A    between atoms: C13_19  and  C14_20
REMARK   11  A    between atoms: C14_20  and  C15_21
REMARK   12  A    between atoms: C15_21  and  C16_22
REMARK   13  A    between atoms: C16_22  and  C17_23
REMARK   14  A    between atoms: C17_23  and  C18_24
REMARK   15  A    between atoms: C18_24  and  C19_25
REMARK   16  A    between atoms: C19_25  and  C20_26
REMARK   17  A    between atoms: C20_26  and  C21_27
REMARK   18  A    between atoms: C21_27  and  C22_28
REMARK   19  A    between atoms: C22_28  and  C23_29
REMARK   20  A    between atoms: C23_29  and  C24_30
REMARK   21  A    between atoms: C24_30  and  C25_31
REMARK   22  A    between atoms: C25_31  and  C26_32
REMARK   23  A    between atoms: C26_32  and  C27_33
REMARK   24  A    between atoms: C27_33  and  C28_34
REMARK   25  A    between atoms: C28_34  and  C29_35
REMARK   26  A    between atoms: C29_35  and  C30_36
REMARK   27  A    between atoms: C30_36  and  C31_37
REMARK   28  A    between atoms: C31_37  and  C32_38
REMARK   29  A    between atoms: C32_38  and  C33_39
REMARK   30  A    between atoms: C33_39  and  C34_40
REMARK   31  A    between atoms: C34_40  and  C35_41
REMARK   32  A    between atoms: C35_41  and  C36_42
REMARK   33  A    between atoms: C36_42  and  O8_44
REMARK   34  A    between atoms: O8_44  and  C37_45
REMARK   35  A    between atoms: C37_45  and  C38_46
REMARK   36  A    between atoms: C38_46  and  C39_48
REMARK   37  A    between atoms: C38_46  and  O12_54
REMARK   38  A    between atoms: C39_48  and  O9_49
REMARK   39  A    between atoms: O9_49  and  C40_50
REMARK   40  A    between atoms: C40_50  and  C41_51
REMARK   41  A    between atoms: O12_54  and  C42_55
REMARK   42  A    between atoms: C42_55  and  C43_56
REMARK                            x       y       z     vdW  Elec       q    Type
REMARK                         _______ _______ _______ _____ _____    ______ ____
ROOT
ATOM     20  C   UNL     1      50.316  20.409  18.094  0.00  0.00    -0.000 C 
ENDROOT
BRANCH  20  19
ATOM     19  C   UNL     1      51.507  20.278  19.045  0.00  0.00    -0.000 C 
BRANCH  19  18
ATOM     18  C   UNL     1      52.596  19.428  18.388  0.00  0.00    -0.000 C 
BRANCH  18  17
ATOM     17  C   UNL     1      51.947  18.280  17.612  0.00  0.00    -0.000 C 
BRANCH  17  16
ATOM     16  C   UNL     1      51.914  17.027  18.488  0.00  0.00    +0.000 C 
BRANCH  16  15
ATOM     15  C   UNL     1      53.068  17.074  19.491  0.00  0.00    +0.001 C 
BRANCH  15  14
ATOM     14  C   UNL     1      54.041  15.928  19.205  0.00  0.00    +0.002 C 
BRANCH  14  13
ATOM     13  C   UNL     1      55.080  15.849  20.324  0.00  0.00    +0.008 C 
BRANCH  13  12
ATOM     12  C   UNL     1      54.399  15.405  21.620  0.00  0.00    +0.013 C 
BRANCH  12  11
ATOM     11  C   UNL     1      55.288  14.388  22.341  0.00  0.00    +0.029 C 
BRANCH  11  10
ATOM     10  C   UNL     1      54.725  12.981  22.135  0.00  0.00    +0.198 C 
BRANCH  10   9
ATOM      9  O   UNL     1      55.641  12.210  21.356  0.00  0.00    -0.352 OA
BRANCH   9   8
ATOM      8  C   UNL     1      55.442  12.187  20.021  0.00  0.00    +0.506 C 
ATOM     49  O   UNL     1      56.291  12.629  19.271  0.00  0.00    -0.524 OA
BRANCH   8   7
ATOM      6  C   UNL     1      53.388  12.441  18.811  0.00  0.00    +0.174 C 
ATOM      7  C   UNL     1      54.241  11.647  19.494  0.00  0.00    -0.097 C 
BRANCH   6   5
ATOM      3  C   UNL     1      50.537  11.727  16.479  0.00  0.00    +0.084 A 
ATOM      4  C   UNL     1      51.708  12.255  16.987  0.00  0.00    -0.003 A 
ATOM      5  C   UNL     1      52.143  11.882  18.265  0.00  0.00    -0.118 A 
ATOM     50  C   UNL     1      51.389  10.976  19.019  0.00  0.00    +0.059 A 
ATOM     51  C   UNL     1      50.223  10.454  18.504  0.00  0.00    -0.053 A 
ATOM     52  C   UNL     1      49.790  10.829  17.239  0.00  0.00    +0.143 A 
BRANCH   3   2
ATOM      1  C   UNL     1      51.011  12.864  14.444  0.00  0.00    +0.229 C 
ATOM      2  O   UNL     1      50.112  12.087  15.238  0.00  0.00    -0.296 OA
ENDBRANCH   3   2
BRANCH  52  53
ATOM     53  O   UNL     1      48.637  10.314  16.739  0.00  0.00    -0.263 OA
BRANCH  53  54
ATOM     54  C   UNL     1      47.434  10.601  17.455  0.00  0.00    +0.113 C 
BRANCH  54  55
ATOM     55  C   UNL     1      46.563  11.511  16.628  0.00  0.00    +0.502 C 
ATOM     56  O   UNL     1      46.413  11.295  15.437  0.00  0.00    -0.687 OA
ATOM     57  O   UNL     1      46.008  12.463  17.150  0.00  0.00    -0.668 OA
ENDBRANCH  54  55
ENDBRANCH  53  54
ENDBRANCH  52  53
ENDBRANCH   6   5
ENDBRANCH   8   7
ENDBRANCH   9   8
ENDBRANCH  10   9
ENDBRANCH  11  10
ENDBRANCH  12  11
ENDBRANCH  13  12
ENDBRANCH  14  13
ENDBRANCH  15  14
ENDBRANCH  16  15
ENDBRANCH  17  16
ENDBRANCH  18  17
ENDBRANCH  19  18
ENDBRANCH  20  19
BRANCH  20  21
ATOM     21  C   UNL     1      49.063  20.773  18.891  0.00  0.00    -0.000 C 
BRANCH  21  22
ATOM     22  C   UNL     1      49.346  20.618  20.386  0.00  0.00    -0.000 C 
BRANCH  22  23
ATOM     23  C   UNL     1      48.052  20.247  21.114  0.00  0.00    -0.000 C 
BRANCH  23  24
ATOM     24  C   UNL     1      47.922  21.091  22.384  0.00  0.00    -0.000 C 
BRANCH  24  25
ATOM     25  C   UNL     1      47.414  22.487  22.018  0.00  0.00    -0.001 C 
BRANCH  25  26
ATOM     26  C   UNL     1      45.886  22.471  21.946  0.00  0.00    +0.000 C 
BRANCH  26  27
ATOM     27  C   UNL     1      45.420  23.381  20.807  0.00  0.00    -0.001 C 
BRANCH  27  28
ATOM     28  C   UNL     1      44.559  22.576  19.831  0.00  0.00    +0.002 C 
BRANCH  28  29
ATOM     29  C   UNL     1      45.453  21.641  19.014  0.00  0.00    +0.004 C 
BRANCH  29  30
ATOM     30  C   UNL     1      44.837  20.241  18.988  0.00  0.00    +0.009 C 
BRANCH  30  31
ATOM     31  C   UNL     1      43.890  20.078  20.179  0.00  0.00    +0.033 C 
BRANCH  31  32
ATOM     32  C   UNL     1      44.472  19.056  21.158  0.00  0.00    +0.096 C 
BRANCH  32  33
ATOM     33  C   UNL     1      43.471  17.953  21.385  0.00  0.00    +0.459 C 
ATOM     48  O   UNL     1      42.288  18.196  21.360  0.00  0.00    -0.520 OA
BRANCH  33  34
ATOM     34  O   UNL     1      43.894  16.700  21.617  0.00  0.00    -0.337 OA
BRANCH  34  35
ATOM     35  C   UNL     1      45.189  16.352  21.121  0.00  0.00    +0.198 C 
BRANCH  35  36
ATOM     36  C   UNL     1      45.097  15.045  20.330  0.00  0.00    +0.156 C 
BRANCH  36  37
ATOM     37  O   UNL     1      45.647  15.237  19.026  0.00  0.00    -0.334 OA
BRANCH  37  38
ATOM     38  C   UNL     1      45.979  16.596  18.730  0.00  0.00    +0.095 C 
BRANCH  38  39
ATOM     39  C   UNL     1      46.491  16.691  17.316  0.00  0.00    +0.501 C 
ATOM     40  O   UNL     1      46.959  17.740  16.907  0.00  0.00    -0.708 OA
ATOM     41  O   UNL     1      46.439  15.719  16.582  0.00  0.00    -0.676 OA
ENDBRANCH  38  39
ENDBRANCH  37  38
ENDBRANCH  36  37
BRANCH  36  42
ATOM     42  C   UNL     1      45.882  13.952  21.059  0.00  0.00    +0.164 C 
BRANCH  42  43
ATOM     43  O   UNL     1      46.847  13.386  20.171  0.00  0.00    -0.343 OA
BRANCH  43  44
ATOM     44  C   UNL     1      48.193  13.466  20.646  0.00  0.00    +0.081 C 
BRANCH  44  45
ATOM     45  C   UNL     1      49.088  13.958  19.539  0.00  0.00    +0.499 C 
ATOM     46  O   UNL     1      48.657  14.056  18.403  0.00  0.00    -0.708 OA
ATOM     47  O   UNL     1      50.246  14.256  19.779  0.00  0.00    -0.668 OA
ENDBRANCH  44  45
ENDBRANCH  43  44
ENDBRANCH  42  43
ENDBRANCH  36  42
ENDBRANCH  35  36
ENDBRANCH  34  35
ENDBRANCH  33  34
ENDBRANCH  32  33
ENDBRANCH  31  32
ENDBRANCH  30  31
ENDBRANCH  29  30
ENDBRANCH  28  29
ENDBRANCH  27  28
ENDBRANCH  26  27
ENDBRANCH  25  26
ENDBRANCH  24  25
ENDBRANCH  23  24
ENDBRANCH  22  23
ENDBRANCH  21  22
ENDBRANCH  20  21
TORSDOF 41
ENDMDL
MODEL 6
REMARK VINA RESULT:      -3.3      2.576      9.326
REMARK  Name = ZINC95486338
REMARK  42 active torsions:
REMARK  status: ('A' for Active; 'I' for Inactive)
REMARK    1  A    between atoms: C1_1  and  O1_2
REMARK    2  A    between atoms: O1_2  and  C2_3
REMARK    3  A    between atoms: C4_5  and  C10_14
REMARK    4  A    between atoms: C7_8  and  O2_9
REMARK    5  A    between atoms: O2_9  and  C8_10
REMARK    6  A    between atoms: C8_10  and  C9_11
REMARK    7  A    between atoms: C11_15  and  C12_16
REMARK    8  A    between atoms: C12_16  and  O6_18
REMARK    9  A    between atoms: O6_18  and  C13_19
REMARK   10  A    between atoms: C13_19  and  C14_20
REMARK   11  A    between atoms: C14_20  and  C15_21
REMARK   12  A    between atoms: C15_21  and  C16_22
REMARK   13  A    between atoms: C16_22  and  C17_23
REMARK   14  A    between atoms: C17_23  and  C18_24
REMARK   15  A    between atoms: C18_24  and  C19_25
REMARK   16  A    between atoms: C19_25  and  C20_26
REMARK   17  A    between atoms: C20_26  and  C21_27
REMARK   18  A    between atoms: C21_27  and  C22_28
REMARK   19  A    between atoms: C22_28  and  C23_29
REMARK   20  A    between atoms: C23_29  and  C24_30
REMARK   21  A    between atoms: C24_30  and  C25_31
REMARK   22  A    between atoms: C25_31  and  C26_32
REMARK   23  A    between atoms: C26_32  and  C27_33
REMARK   24  A    between atoms: C27_33  and  C28_34
REMARK   25  A    between atoms: C28_34  and  C29_35
REMARK   26  A    between atoms: C29_35  and  C30_36
REMARK   27  A    between atoms: C30_36  and  C31_37
REMARK   28  A    between atoms: C31_37  and  C32_38
REMARK   29  A    between atoms: C32_38  and  C33_39
REMARK   30  A    between atoms: C33_39  and  C34_40
REMARK   31  A    between atoms: C34_40  and  C35_41
REMARK   32  A    between atoms: C35_41  and  C36_42
REMARK   33  A    between atoms: C36_42  and  O8_44
REMARK   34  A    between atoms: O8_44  and  C37_45
REMARK   35  A    between atoms: C37_45  and  C38_46
REMARK   36  A    between atoms: C38_46  and  C39_48
REMARK   37  A    between atoms: C38_46  and  O12_54
REMARK   38  A    between atoms: C39_48  and  O9_49
REMARK   39  A    between atoms: O9_49  and  C40_50
REMARK   40  A    between atoms: C40_50  and  C41_51
REMARK   41  A    between atoms: O12_54  and  C42_55
REMARK   42  A    between atoms: C42_55  and  C43_56
REMARK                            x       y       z     vdW  Elec       q    Type
REMARK                         _______ _______ _______ _____ _____    ______ ____
ROOT
ATOM     20  C   UNL     1      51.036  13.302  15.883  0.00  0.00    -0.000 C 
ENDROOT
BRANCH  20  19
ATOM     19  C   UNL     1      52.002  13.665  14.754  0.00  0.00    -0.000 C 
BRANCH  19  18
ATOM     18  C   UNL     1      51.381  13.285  13.409  0.00  0.00    -0.000 C 
BRANCH  18  17
ATOM     17  C   UNL     1      50.200  12.339  13.640  0.00  0.00    -0.000 C 
BRANCH  17  16
ATOM     16  C   UNL     1      48.974  12.861  12.889  0.00  0.00    +0.000 C 
BRANCH  16  15
ATOM     15  C   UNL     1      47.737  12.730  13.779  0.00  0.00    +0.001 C 
BRANCH  15  14
ATOM     14  C   UNL     1      48.088  11.918  15.028  0.00  0.00    +0.002 C 
BRANCH  14  13
ATOM     13  C   UNL     1      46.960  10.930  15.328  0.00  0.00    +0.008 C 
BRANCH  13  12
ATOM     12  C   UNL     1      47.070  10.458  16.779  0.00  0.00    +0.013 C 
BRANCH  12  11
ATOM     11  C   UNL     1      47.793  11.522  17.608  0.00  0.00    +0.029 C 
BRANCH  11  10
ATOM     10  C   UNL     1      48.724  10.841  18.612  0.00  0.00    +0.198 C 
BRANCH  10   9
ATOM      9  O   UNL     1      48.543  11.427  19.903  0.00  0.00    -0.352 OA
BRANCH   9   8
ATOM      8  C   UNL     1      49.311  12.496  20.204  0.00  0.00    +0.506 C 
ATOM     49  O   UNL     1      50.514  12.368  20.321  0.00  0.00    -0.524 OA
BRANCH   8   7
ATOM      6  C   UNL     1      47.371  13.903  20.286  0.00  0.00    +0.174 C 
ATOM      7  C   UNL     1      48.712  13.768  20.383  0.00  0.00    -0.097 C 
BRANCH   6   5
ATOM      3  C   UNL     1      46.955  17.577  20.920  0.00  0.00    +0.084 A 
ATOM      4  C   UNL     1      47.545  16.340  20.745  0.00  0.00    -0.003 A 
ATOM      5  C   UNL     1      46.749  15.221  20.472  0.00  0.00    -0.118 A 
ATOM     50  C   UNL     1      45.360  15.362  20.378  0.00  0.00    +0.059 A 
ATOM     51  C   UNL     1      44.780  16.599  20.553  0.00  0.00    -0.053 A 
ATOM     52  C   UNL     1      45.570  17.708  20.829  0.00  0.00    +0.143 A 
BRANCH   3   2
ATOM      1  C   UNL     1      48.465  19.219  20.095  0.00  0.00    +0.229 C 
ATOM      2  O   UNL     1      47.725  18.666  21.185  0.00  0.00    -0.296 OA
ENDBRANCH   3   2
BRANCH  52  53
ATOM     53  O   UNL     1      44.991  18.923  21.005  0.00  0.00    -0.263 OA
BRANCH  53  54
ATOM     54  C   UNL     1      43.997  19.312  20.057  0.00  0.00    +0.113 C 
BRANCH  54  55
ATOM     55  C   UNL     1      44.479  20.515  19.287  0.00  0.00    +0.502 C 
ATOM     56  O   UNL     1      45.441  20.416  18.543  0.00  0.00    -0.687 OA
ATOM     57  O   UNL     1      43.910  21.585  19.408  0.00  0.00    -0.668 OA
ENDBRANCH  54  55
ENDBRANCH  53  54
ENDBRANCH  52  53
ENDBRANCH   6   5
ENDBRANCH   8   7
ENDBRANCH   9   8
ENDBRANCH  10   9
ENDBRANCH  11  10
ENDBRANCH  12  11
ENDBRANCH  13  12
ENDBRANCH  14  13
ENDBRANCH  15  14
ENDBRANCH  16  15
ENDBRANCH  17  16
ENDBRANCH  18  17
ENDBRANCH  19  18
ENDBRANCH  20  19
BRANCH  20  21
ATOM     21  C   UNL     1      51.824  12.752  17.073  0.00  0.00    -0.000 C 
BRANCH  21  22
ATOM     22  C   UNL     1      52.314  11.339  16.751  0.00  0.00    -0.000 C 
BRANCH  22  23
ATOM     23  C   UNL     1      52.797  10.662  18.036  0.00  0.00    -0.000 C 
BRANCH  23  24
ATOM     24  C   UNL     1      53.711  11.618  18.804  0.00  0.00    -0.000 C 
BRANCH  24  25
ATOM     25  C   UNL     1      54.352  10.878  19.979  0.00  0.00    -0.001 C 
BRANCH  25  26
ATOM     26  C   UNL     1      55.447  11.750  20.596  0.00  0.00    +0.000 C 
BRANCH  26  27
ATOM     27  C   UNL     1      56.125  12.570  19.496  0.00  0.00    -0.001 C 
BRANCH  27  28
ATOM     28  C   UNL     1      57.061  13.601  20.131  0.00  0.00    +0.002 C 
BRANCH  28  29
ATOM     29  C   UNL     1      56.397  14.193  21.376  0.00  0.00    +0.004 C 
BRANCH  29  30
ATOM     30  C   UNL     1      56.113  15.678  21.144  0.00  0.00    +0.009 C 
BRANCH  30  31
ATOM     31  C   UNL     1      54.666  15.987  21.533  0.00  0.00    +0.033 C 
BRANCH  31  32
ATOM     32  C   UNL     1      53.726  15.014  20.819  0.00  0.00    +0.096 C 
BRANCH  32  33
ATOM     33  C   UNL     1      53.024  15.728  19.693  0.00  0.00    +0.459 C 
ATOM     48  O   UNL     1      53.595  16.601  19.082  0.00  0.00    -0.520 OA
BRANCH  33  34
ATOM     34  O   UNL     1      51.765  15.395  19.369  0.00  0.00    -0.337 OA
BRANCH  34  35
ATOM     35  C   UNL     1      50.871  16.466  19.059  0.00  0.00    +0.198 C 
BRANCH  35  36
ATOM     36  C   UNL     1      50.487  16.397  17.578  0.00  0.00    +0.156 C 
BRANCH  36  37
ATOM     37  O   UNL     1      49.122  15.997  17.457  0.00  0.00    -0.334 OA
BRANCH  37  38
ATOM     38  C   UNL     1      48.228  17.068  17.144  0.00  0.00    +0.095 C 
BRANCH  38  39
ATOM     39  C   UNL     1      46.816  16.546  17.094  0.00  0.00    +0.501 C 
ATOM     40  O   UNL     1      45.881  17.292  17.336  0.00  0.00    -0.708 OA
ATOM     41  O   UNL     1      46.607  15.379  16.812  0.00  0.00    -0.676 OA
ENDBRANCH  38  39
ENDBRANCH  37  38
ENDBRANCH  36  37
BRANCH  36  42
ATOM     42  C   UNL     1      50.674  17.775  16.940  0.00  0.00    +0.164 C 
BRANCH  42  43
ATOM     43  O   UNL     1      51.268  18.663  17.889  0.00  0.00    -0.343 OA
BRANCH  43  44
ATOM     44  C   UNL     1      52.162  19.617  17.312  0.00  0.00    +0.081 C 
BRANCH  44  45
ATOM     45  C   UNL     1      51.462  20.945  17.177  0.00  0.00    +0.499 C 
ATOM     46  O   UNL     1      50.893  21.435  18.137  0.00  0.00    -0.708 OA
ATOM     47  O   UNL     1      51.462  21.527  16.106  0.00  0.00    -0.668 OA
ENDBRANCH  44  45
ENDBRANCH  43  44
ENDBRANCH  42  43
ENDBRANCH  36  42
ENDBRANCH  35  36
ENDBRANCH  34  35
ENDBRANCH  33  34
ENDBRANCH  32  33
ENDBRANCH  31  32
ENDBRANCH  30  31
ENDBRANCH  29  30
ENDBRANCH  28  29
ENDBRANCH  27  28
ENDBRANCH  26  27
ENDBRANCH  25  26
ENDBRANCH  24  25
ENDBRANCH  23  24
ENDBRANCH  22  23
ENDBRANCH  21  22
ENDBRANCH  20  21
TORSDOF 41
ENDMDL
MODEL 7
REMARK VINA RESULT:      -3.2      1.430      2.228
REMARK  Name = ZINC95486338
REMARK  42 active torsions:
REMARK  status: ('A' for Active; 'I' for Inactive)
REMARK    1  A    between atoms: C1_1  and  O1_2
REMARK    2  A    between atoms: O1_2  and  C2_3
REMARK    3  A    between atoms: C4_5  and  C10_14
REMARK    4  A    between atoms: C7_8  and  O2_9
REMARK    5  A    between atoms: O2_9  and  C8_10
REMARK    6  A    between atoms: C8_10  and  C9_11
REMARK    7  A    between atoms: C11_15  and  C12_16
REMARK    8  A    between atoms: C12_16  and  O6_18
REMARK    9  A    between atoms: O6_18  and  C13_19
REMARK   10  A    between atoms: C13_19  and  C14_20
REMARK   11  A    between atoms: C14_20  and  C15_21
REMARK   12  A    between atoms: C15_21  and  C16_22
REMARK   13  A    between atoms: C16_22  and  C17_23
REMARK   14  A    between atoms: C17_23  and  C18_24
REMARK   15  A    between atoms: C18_24  and  C19_25
REMARK   16  A    between atoms: C19_25  and  C20_26
REMARK   17  A    between atoms: C20_26  and  C21_27
REMARK   18  A    between atoms: C21_27  and  C22_28
REMARK   19  A    between atoms: C22_28  and  C23_29
REMARK   20  A    between atoms: C23_29  and  C24_30
REMARK   21  A    between atoms: C24_30  and  C25_31
REMARK   22  A    between atoms: C25_31  and  C26_32
REMARK   23  A    between atoms: C26_32  and  C27_33
REMARK   24  A    between atoms: C27_33  and  C28_34
REMARK   25  A    between atoms: C28_34  and  C29_35
REMARK   26  A    between atoms: C29_35  and  C30_36
REMARK   27  A    between atoms: C30_36  and  C31_37
REMARK   28  A    between atoms: C31_37  and  C32_38
REMARK   29  A    between atoms: C32_38  and  C33_39
REMARK   30  A    between atoms: C33_39  and  C34_40
REMARK   31  A    between atoms: C34_40  and  C35_41
REMARK   32  A    between atoms: C35_41  and  C36_42
REMARK   33  A    between atoms: C36_42  and  O8_44
REMARK   34  A    between atoms: O8_44  and  C37_45
REMARK   35  A    between atoms: C37_45  and  C38_46
REMARK   36  A    between atoms: C38_46  and  C39_48
REMARK   37  A    between atoms: C38_46  and  O12_54
REMARK   38  A    between atoms: C39_48  and  O9_49
REMARK   39  A    between atoms: O9_49  and  C40_50
REMARK   40  A    between atoms: C40_50  and  C41_51
REMARK   41  A    between atoms: O12_54  and  C42_55
REMARK   42  A    between atoms: C42_55  and  C43_56
REMARK                            x       y       z     vdW  Elec       q    Type
REMARK                         _______ _______ _______ _____ _____    ______ ____
ROOT
ATOM     20  C   UNL     1      45.703  22.304  18.778  0.00  0.00    -0.000 C 
ENDROOT
BRANCH  20  19
ATOM     19  C   UNL     1      46.236  21.128  19.598  0.00  0.00    -0.000 C 
BRANCH  19  18
ATOM     18  C   UNL     1      46.146  19.844  18.771  0.00  0.00    -0.000 C 
BRANCH  18  17
ATOM     17  C   UNL     1      47.488  19.112  18.815  0.00  0.00    -0.000 C 
BRANCH  17  16
ATOM     16  C   UNL     1      47.841  18.783  20.267  0.00  0.00    +0.000 C 
BRANCH  16  15
ATOM     15  C   UNL     1      49.131  17.961  20.305  0.00  0.00    +0.001 C 
BRANCH  15  14
ATOM     14  C   UNL     1      50.257  18.804  20.906  0.00  0.00    +0.002 C 
BRANCH  14  13
ATOM     13  C   UNL     1      49.823  20.270  20.962  0.00  0.00    +0.008 C 
BRANCH  13  12
ATOM     12  C   UNL     1      50.474  21.038  19.809  0.00  0.00    +0.013 C 
BRANCH  12  11
ATOM     11  C   UNL     1      51.943  21.307  20.142  0.00  0.00    +0.029 C 
BRANCH  11  10
ATOM     10  C   UNL     1      52.806  21.016  18.913  0.00  0.00    +0.198 C 
BRANCH  10   9
ATOM      9  O   UNL     1      52.546  19.689  18.451  0.00  0.00    -0.352 OA
BRANCH   9   8
ATOM      8  C   UNL     1      52.192  19.550  17.156  0.00  0.00    +0.506 C 
ATOM     49  O   UNL     1      52.246  20.504  16.404  0.00  0.00    -0.524 OA
BRANCH   8   7
ATOM      6  C   UNL     1      51.313  17.352  17.538  0.00  0.00    +0.174 C 
ATOM      7  C   UNL     1      51.757  18.290  16.673  0.00  0.00    -0.097 C 
BRANCH   6   5
ATOM      3  C   UNL     1      49.154  14.358  16.866  0.00  0.00    +0.084 A 
ATOM      4  C   UNL     1      49.573  15.587  17.338  0.00  0.00    -0.003 A 
ATOM      5  C   UNL     1      50.861  16.046  17.038  0.00  0.00    -0.118 A 
ATOM     50  C   UNL     1      51.717  15.258  16.261  0.00  0.00    +0.059 A 
ATOM     51  C   UNL     1      51.291  14.034  15.794  0.00  0.00    -0.053 A 
ATOM     52  C   UNL     1      50.015  13.577  16.097  0.00  0.00    +0.143 A 
BRANCH   3   2
ATOM      1  C   UNL     1      46.853  14.298  16.268  0.00  0.00    +0.229 C 
ATOM      2  O   UNL     1      47.904  13.910  17.155  0.00  0.00    -0.296 OA
ENDBRANCH   3   2
BRANCH  52  53
ATOM     53  O   UNL     1      49.603  12.367  15.637  0.00  0.00    -0.263 OA
BRANCH  53  54
ATOM     54  C   UNL     1      50.073  11.969  14.348  0.00  0.00    +0.113 C 
BRANCH  54  55
ATOM     55  C   UNL     1      49.353  12.758  13.285  0.00  0.00    +0.502 C 
ATOM     56  O   UNL     1      48.138  12.862  13.321  0.00  0.00    -0.687 OA
ATOM     57  O   UNL     1      49.984  13.291  12.389  0.00  0.00    -0.668 OA
ENDBRANCH  54  55
ENDBRANCH  53  54
ENDBRANCH  52  53
ENDBRANCH   6   5
ENDBRANCH   8   7
ENDBRANCH   9   8
ENDBRANCH  10   9
ENDBRANCH  11  10
ENDBRANCH  12  11
ENDBRANCH  13  12
ENDBRANCH  14  13
ENDBRANCH  15  14
ENDBRANCH  16  15
ENDBRANCH  17  16
ENDBRANCH  18  17
ENDBRANCH  19  18
ENDBRANCH  20  19
BRANCH  20  21
ATOM     21  C   UNL     1      44.435  22.852  19.434  0.00  0.00    -0.000 C 
BRANCH  21  22
ATOM     22  C   UNL     1      43.832  21.783  20.347  0.00  0.00    -0.000 C 
BRANCH  22  23
ATOM     23  C   UNL     1      42.768  20.996  19.578  0.00  0.00    -0.000 C 
BRANCH  23  24
ATOM     24  C   UNL     1      42.734  19.553  20.087  0.00  0.00    -0.000 C 
BRANCH  24  25
ATOM     25  C   UNL     1      43.342  19.493  21.489  0.00  0.00    -0.001 C 
BRANCH  25  26
ATOM     26  C   UNL     1      43.077  18.117  22.102  0.00  0.00    +0.000 C 
BRANCH  26  27
ATOM     27  C   UNL     1      44.403  17.375  22.284  0.00  0.00    -0.001 C 
BRANCH  27  28
ATOM     28  C   UNL     1      44.428  16.144  21.376  0.00  0.00    +0.002 C 
BRANCH  28  29
ATOM     29  C   UNL     1      45.019  16.524  20.017  0.00  0.00    +0.004 C 
BRANCH  29  30
ATOM     30  C   UNL     1      45.812  15.341  19.459  0.00  0.00    +0.009 C 
BRANCH  30  31
ATOM     31  C   UNL     1      45.632  14.128  20.374  0.00  0.00    +0.033 C 
BRANCH  31  32
ATOM     32  C   UNL     1      46.919  13.301  20.385  0.00  0.00    +0.096 C 
BRANCH  32  33
ATOM     33  C   UNL     1      47.976  14.027  21.177  0.00  0.00    +0.459 C 
ATOM     48  O   UNL     1      47.850  14.163  22.371  0.00  0.00    -0.520 OA
BRANCH  33  34
ATOM     34  O   UNL     1      49.057  14.524  20.555  0.00  0.00    -0.337 OA
BRANCH  34  35
ATOM     35  C   UNL     1      50.319  14.334  21.198  0.00  0.00    +0.198 C 
BRANCH  35  36
ATOM     36  C   UNL     1      51.326  13.778  20.189  0.00  0.00    +0.156 C 
BRANCH  36  37
ATOM     37  O   UNL     1      52.646  14.177  20.563  0.00  0.00    -0.334 OA
BRANCH  37  38
ATOM     38  C   UNL     1      53.395  14.776  19.502  0.00  0.00    +0.095 C 
BRANCH  38  39
ATOM     39  C   UNL     1      54.866  14.561  19.743  0.00  0.00    +0.501 C 
ATOM     40  O   UNL     1      55.252  13.539  20.286  0.00  0.00    -0.708 OA
ATOM     41  O   UNL     1      55.672  15.407  19.395  0.00  0.00    -0.676 OA
ENDBRANCH  38  39
ENDBRANCH  37  38
ENDBRANCH  36  37
BRANCH  36  42
ATOM     42  C   UNL     1      51.241  12.251  20.173  0.00  0.00    +0.164 C 
BRANCH  42  43
ATOM     43  O   UNL     1      50.669  11.818  18.937  0.00  0.00    -0.343 OA
BRANCH  43  44
ATOM     44  C   UNL     1      51.281  10.648  18.390  0.00  0.00    +0.081 C 
BRANCH  44  45
ATOM     45  C   UNL     1      52.611  11.013  17.785  0.00  0.00    +0.499 C 
ATOM     46  O   UNL     1      52.747  11.028  16.574  0.00  0.00    -0.708 OA
ATOM     47  O   UNL     1      53.554  11.292  18.507  0.00  0.00    -0.668 OA
ENDBRANCH  44  45
ENDBRANCH  43  44
ENDBRANCH  42  43
ENDBRANCH  36  42
ENDBRANCH  35  36
ENDBRANCH  34  35
ENDBRANCH  33  34
ENDBRANCH  32  33
ENDBRANCH  31  32
ENDBRANCH  30  31
ENDBRANCH  29  30
ENDBRANCH  28  29
ENDBRANCH  27  28
ENDBRANCH  26  27
ENDBRANCH  25  26
ENDBRANCH  24  25
ENDBRANCH  23  24
ENDBRANCH  22  23
ENDBRANCH  21  22
ENDBRANCH  20  21
TORSDOF 41
ENDMDL
MODEL 8
REMARK VINA RESULT:      -3.2      2.425      7.660
REMARK  Name = ZINC95486338
REMARK  42 active torsions:
REMARK  status: ('A' for Active; 'I' for Inactive)
REMARK    1  A    between atoms: C1_1  and  O1_2
REMARK    2  A    between atoms: O1_2  and  C2_3
REMARK    3  A    between atoms: C4_5  and  C10_14
REMARK    4  A    between atoms: C7_8  and  O2_9
REMARK    5  A    between atoms: O2_9  and  C8_10
REMARK    6  A    between atoms: C8_10  and  C9_11
REMARK    7  A    between atoms: C11_15  and  C12_16
REMARK    8  A    between atoms: C12_16  and  O6_18
REMARK    9  A    between atoms: O6_18  and  C13_19
REMARK   10  A    between atoms: C13_19  and  C14_20
REMARK   11  A    between atoms: C14_20  and  C15_21
REMARK   12  A    between atoms: C15_21  and  C16_22
REMARK   13  A    between atoms: C16_22  and  C17_23
REMARK   14  A    between atoms: C17_23  and  C18_24
REMARK   15  A    between atoms: C18_24  and  C19_25
REMARK   16  A    between atoms: C19_25  and  C20_26
REMARK   17  A    between atoms: C20_26  and  C21_27
REMARK   18  A    between atoms: C21_27  and  C22_28
REMARK   19  A    between atoms: C22_28  and  C23_29
REMARK   20  A    between atoms: C23_29  and  C24_30
REMARK   21  A    between atoms: C24_30  and  C25_31
REMARK   22  A    between atoms: C25_31  and  C26_32
REMARK   23  A    between atoms: C26_32  and  C27_33
REMARK   24  A    between atoms: C27_33  and  C28_34
REMARK   25  A    between atoms: C28_34  and  C29_35
REMARK   26  A    between atoms: C29_35  and  C30_36
REMARK   27  A    between atoms: C30_36  and  C31_37
REMARK   28  A    between atoms: C31_37  and  C32_38
REMARK   29  A    between atoms: C32_38  and  C33_39
REMARK   30  A    between atoms: C33_39  and  C34_40
REMARK   31  A    between atoms: C34_40  and  C35_41
REMARK   32  A    between atoms: C35_41  and  C36_42
REMARK   33  A    between atoms: C36_42  and  O8_44
REMARK   34  A    between atoms: O8_44  and  C37_45
REMARK   35  A    between atoms: C37_45  and  C38_46
REMARK   36  A    between atoms: C38_46  and  C39_48
REMARK   37  A    between atoms: C38_46  and  O12_54
REMARK   38  A    between atoms: C39_48  and  O9_49
REMARK   39  A    between atoms: O9_49  and  C40_50
REMARK   40  A    between atoms: C40_50  and  C41_51
REMARK   41  A    between atoms: O12_54  and  C42_55
REMARK   42  A    between atoms: C42_55  and  C43_56
REMARK                            x       y       z     vdW  Elec       q    Type
REMARK                         _______ _______ _______ _____ _____    ______ ____
ROOT
ATOM     20  C   UNL     1      46.310  16.781  18.673  0.00  0.00    -0.000 C 
ENDROOT
BRANCH  20  19
ATOM     19  C   UNL     1      45.115  17.564  19.222  0.00  0.00    -0.000 C 
BRANCH  19  18
ATOM     18  C   UNL     1      45.197  17.618  20.748  0.00  0.00    -0.000 C 
BRANCH  18  17
ATOM     17  C   UNL     1      43.952  16.964  21.350  0.00  0.00    -0.000 C 
BRANCH  17  16
ATOM     16  C   UNL     1      43.413  17.839  22.483  0.00  0.00    +0.000 C 
BRANCH  16  15
ATOM     15  C   UNL     1      42.775  19.099  21.896  0.00  0.00    +0.001 C 
BRANCH  15  14
ATOM     14  C   UNL     1      41.461  18.731  21.202  0.00  0.00    +0.002 C 
BRANCH  14  13
ATOM     13  C   UNL     1      41.346  19.503  19.887  0.00  0.00    +0.008 C 
BRANCH  13  12
ATOM     12  C   UNL     1      42.669  20.215  19.596  0.00  0.00    +0.013 C 
BRANCH  12  11
ATOM     11  C   UNL     1      42.385  21.626  19.075  0.00  0.00    +0.029 C 
BRANCH  11  10
ATOM     10  C   UNL     1      43.430  22.595  19.630  0.00  0.00    +0.198 C 
BRANCH  10   9
ATOM      9  O   UNL     1      44.244  21.919  20.590  0.00  0.00    -0.352 OA
BRANCH   9   8
ATOM      8  C   UNL     1      45.529  22.322  20.696  0.00  0.00    +0.506 C 
ATOM     49  O   UNL     1      45.805  23.308  21.353  0.00  0.00    -0.524 OA
BRANCH   8   7
ATOM      6  C   UNL     1      47.724  21.360  20.674  0.00  0.00    +0.174 C 
ATOM      7  C   UNL     1      46.555  21.596  20.041  0.00  0.00    -0.097 C 
BRANCH   6   5
ATOM      3  C   UNL     1      51.123  20.096  19.710  0.00  0.00    +0.084 A 
ATOM      4  C   UNL     1      50.127  20.807  20.352  0.00  0.00    -0.003 A 
ATOM      5  C   UNL     1      48.788  20.607  19.995  0.00  0.00    -0.118 A 
ATOM     50  C   UNL     1      48.466  19.687  18.990  0.00  0.00    +0.059 A 
ATOM     51  C   UNL     1      49.465  18.983  18.356  0.00  0.00    -0.053 A 
ATOM     52  C   UNL     1      50.794  19.186  18.706  0.00  0.00    +0.143 A 
BRANCH   3   2
ATOM      1  C   UNL     1      52.845  21.636  20.278  0.00  0.00    +0.229 C 
ATOM      2  O   UNL     1      52.424  20.288  20.054  0.00  0.00    -0.296 OA
ENDBRANCH   3   2
BRANCH  52  53
ATOM     53  O   UNL     1      51.774  18.492  18.074  0.00  0.00    -0.263 OA
BRANCH  53  54
ATOM     54  C   UNL     1      51.598  17.079  17.959  0.00  0.00    +0.113 C 
BRANCH  54  55
ATOM     55  C   UNL     1      52.420  16.383  19.013  0.00  0.00    +0.502 C 
ATOM     56  O   UNL     1      53.544  16.781  19.272  0.00  0.00    -0.687 OA
ATOM     57  O   UNL     1      51.961  15.423  19.608  0.00  0.00    -0.668 OA
ENDBRANCH  54  55
ENDBRANCH  53  54
ENDBRANCH  52  53
ENDBRANCH   6   5
ENDBRANCH   8   7
ENDBRANCH   9   8
ENDBRANCH  10   9
ENDBRANCH  11  10
ENDBRANCH  12  11
ENDBRANCH  13  12
ENDBRANCH  14  13
ENDBRANCH  15  14
ENDBRANCH  16  15
ENDBRANCH  17  16
ENDBRANCH  18  17
ENDBRANCH  19  18
ENDBRANCH  20  19
BRANCH  20  21
ATOM     21  C   UNL     1      46.791  15.779  19.724  0.00  0.00    -0.000 C 
BRANCH  21  22
ATOM     22  C   UNL     1      46.121  14.425  19.481  0.00  0.00    -0.000 C 
BRANCH  22  23
ATOM     23  C   UNL     1      46.127  13.614  20.779  0.00  0.00    -0.000 C 
BRANCH  23  24
ATOM     24  C   UNL     1      46.645  14.486  21.924  0.00  0.00    -0.000 C 
BRANCH  24  25
ATOM     25  C   UNL     1      47.981  13.933  22.422  0.00  0.00    -0.001 C 
BRANCH  25  26
ATOM     26  C   UNL     1      47.927  12.404  22.438  0.00  0.00    +0.000 C 
BRANCH  26  27
ATOM     27  C   UNL     1      49.349  11.844  22.494  0.00  0.00    -0.001 C 
BRANCH  27  28
ATOM     28  C   UNL     1      49.493  10.714  21.471  0.00  0.00    +0.002 C 
BRANCH  28  29
ATOM     29  C   UNL     1      50.967  10.552  21.093  0.00  0.00    +0.004 C 
BRANCH  29  30
ATOM     30  C   UNL     1      51.308  11.511  19.952  0.00  0.00    +0.009 C 
BRANCH  30  31
ATOM     31  C   UNL     1      52.760  11.295  19.520  0.00  0.00    +0.033 C 
BRANCH  31  32
ATOM     32  C   UNL     1      53.005  11.997  18.183  0.00  0.00    +0.096 C 
BRANCH  32  33
ATOM     33  C   UNL     1      52.743  11.033  17.055  0.00  0.00    +0.459 C 
ATOM     48  O   UNL     1      53.666  10.481  16.504  0.00  0.00    -0.520 OA
BRANCH  33  34
ATOM     34  O   UNL     1      51.483  10.788  16.661  0.00  0.00    -0.337 OA
BRANCH  34  35
ATOM     35  C   UNL     1      51.199  10.934  15.268  0.00  0.00    +0.198 C 
BRANCH  35  36
ATOM     36  C   UNL     1      49.995  11.861  15.088  0.00  0.00    +0.156 C 
BRANCH  36  37
ATOM     37  O   UNL     1      50.370  12.978  14.280  0.00  0.00    -0.334 OA
BRANCH  37  38
ATOM     38  C   UNL     1      51.285  12.655  13.230  0.00  0.00    +0.095 C 
BRANCH  38  39
ATOM     39  C   UNL     1      50.748  13.168  11.920  0.00  0.00    +0.501 C 
ATOM     40  O   UNL     1      51.488  13.270  10.955  0.00  0.00    -0.708 OA
ATOM     41  O   UNL     1      49.574  13.481  11.822  0.00  0.00    -0.676 OA
ENDBRANCH  38  39
ENDBRANCH  37  38
ENDBRANCH  36  37
BRANCH  36  42
ATOM     42  C   UNL     1      48.860  11.096  14.404  0.00  0.00    +0.164 C 
BRANCH  42  43
ATOM     43  O   UNL     1      47.624  11.774  14.630  0.00  0.00    -0.343 OA
BRANCH  43  44
ATOM     44  C   UNL     1      47.512  12.363  15.927  0.00  0.00    +0.081 C 
BRANCH  44  45
ATOM     45  C   UNL     1      46.449  11.642  16.717  0.00  0.00    +0.499 C 
ATOM     46  O   UNL     1      45.453  11.222  16.155  0.00  0.00    -0.708 OA
ATOM     47  O   UNL     1      46.585  11.482  17.918  0.00  0.00    -0.668 OA
ENDBRANCH  44  45
ENDBRANCH  43  44
ENDBRANCH  42  43
ENDBRANCH  36  42
ENDBRANCH  35  36
ENDBRANCH  34  35
ENDBRANCH  33  34
ENDBRANCH  32  33
ENDBRANCH  31  32
ENDBRANCH  30  31
ENDBRANCH  29  30
ENDBRANCH  28  29
ENDBRANCH  27  28
ENDBRANCH  26  27
ENDBRANCH  25  26
ENDBRANCH  24  25
ENDBRANCH  23  24
ENDBRANCH  22  23
ENDBRANCH  21  22
ENDBRANCH  20  21
TORSDOF 41
ENDMDL
MODEL 9
REMARK VINA RESULT:      -3.1      2.823      7.829
REMARK  Name = ZINC95486338
REMARK  42 active torsions:
REMARK  status: ('A' for Active; 'I' for Inactive)
REMARK    1  A    between atoms: C1_1  and  O1_2
REMARK    2  A    between atoms: O1_2  and  C2_3
REMARK    3  A    between atoms: C4_5  and  C10_14
REMARK    4  A    between atoms: C7_8  and  O2_9
REMARK    5  A    between atoms: O2_9  and  C8_10
REMARK    6  A    between atoms: C8_10  and  C9_11
REMARK    7  A    between atoms: C11_15  and  C12_16
REMARK    8  A    between atoms: C12_16  and  O6_18
REMARK    9  A    between atoms: O6_18  and  C13_19
REMARK   10  A    between atoms: C13_19  and  C14_20
REMARK   11  A    between atoms: C14_20  and  C15_21
REMARK   12  A    between atoms: C15_21  and  C16_22
REMARK   13  A    between atoms: C16_22  and  C17_23
REMARK   14  A    between atoms: C17_23  and  C18_24
REMARK   15  A    between atoms: C18_24  and  C19_25
REMARK   16  A    between atoms: C19_25  and  C20_26
REMARK   17  A    between atoms: C20_26  and  C21_27
REMARK   18  A    between atoms: C21_27  and  C22_28
REMARK   19  A    between atoms: C22_28  and  C23_29
REMARK   20  A    between atoms: C23_29  and  C24_30
REMARK   21  A    between atoms: C24_30  and  C25_31
REMARK   22  A    between atoms: C25_31  and  C26_32
REMARK   23  A    between atoms: C26_32  and  C27_33
REMARK   24  A    between atoms: C27_33  and  C28_34
REMARK   25  A    between atoms: C28_34  and  C29_35
REMARK   26  A    between atoms: C29_35  and  C30_36
REMARK   27  A    between atoms: C30_36  and  C31_37
REMARK   28  A    between atoms: C31_37  and  C32_38
REMARK   29  A    between atoms: C32_38  and  C33_39
REMARK   30  A    between atoms: C33_39  and  C34_40
REMARK   31  A    between atoms: C34_40  and  C35_41
REMARK   32  A    between atoms: C35_41  and  C36_42
REMARK   33  A    between atoms: C36_42  and  O8_44
REMARK   34  A    between atoms: O8_44  and  C37_45
REMARK   35  A    between atoms: C37_45  and  C38_46
REMARK   36  A    between atoms: C38_46  and  C39_48
REMARK   37  A    between atoms: C38_46  and  O12_54
REMARK   38  A    between atoms: C39_48  and  O9_49
REMARK   39  A    between atoms: O9_49  and  C40_50
REMARK   40  A    between atoms: C40_50  and  C41_51
REMARK   41  A    between atoms: O12_54  and  C42_55
REMARK   42  A    between atoms: C42_55  and  C43_56
REMARK                            x       y       z     vdW  Elec       q    Type
REMARK                         _______ _______ _______ _____ _____    ______ ____
ROOT
ATOM     20  C   UNL     1      45.859  16.935  18.742  0.00  0.00    -0.000 C 
ENDROOT
BRANCH  20  19
ATOM     19  C   UNL     1      44.732  17.741  19.390  0.00  0.00    -0.000 C 
BRANCH  19  18
ATOM     18  C   UNL     1      44.853  17.657  20.912  0.00  0.00    -0.000 C 
BRANCH  18  17
ATOM     17  C   UNL     1      43.533  17.155  21.502  0.00  0.00    -0.000 C 
BRANCH  17  16
ATOM     16  C   UNL     1      42.978  18.199  22.472  0.00  0.00    +0.000 C 
BRANCH  16  15
ATOM     15  C   UNL     1      42.373  19.360  21.682  0.00  0.00    +0.001 C 
BRANCH  15  14
ATOM     14  C   UNL     1      41.011  18.944  21.123  0.00  0.00    +0.002 C 
BRANCH  14  13
ATOM     13  C   UNL     1      40.960  19.248  19.625  0.00  0.00    +0.008 C 
BRANCH  13  12
ATOM     12  C   UNL     1      42.118  20.176  19.254  0.00  0.00    +0.013 C 
BRANCH  12  11
ATOM     11  C   UNL     1      41.565  21.541  18.836  0.00  0.00    +0.029 C 
BRANCH  11  10
ATOM     10  C   UNL     1      42.558  22.636  19.227  0.00  0.00    +0.198 C 
BRANCH  10   9
ATOM      9  O   UNL     1      43.545  22.093  20.107  0.00  0.00    -0.352 OA
BRANCH   9   8
ATOM      8  C   UNL     1      44.838  22.333  19.800  0.00  0.00    +0.506 C 
ATOM     49  O   UNL     1      45.151  23.380  19.266  0.00  0.00    -0.524 OA
BRANCH   8   7
ATOM      6  C   UNL     1      46.800  21.092  19.203  0.00  0.00    +0.174 C 
ATOM      7  C   UNL     1      45.828  21.365  20.101  0.00  0.00    -0.097 C 
BRANCH   6   5
ATOM      3  C   UNL     1      49.804  18.867  18.888  0.00  0.00    +0.084 A 
ATOM      4  C   UNL     1      48.841  19.812  18.589  0.00  0.00    -0.003 A 
ATOM      5  C   UNL     1      47.828  20.089  19.515  0.00  0.00    -0.118 A 
ATOM     50  C   UNL     1      47.797  19.408  20.737  0.00  0.00    +0.059 A 
ATOM     51  C   UNL     1      48.761  18.469  21.027  0.00  0.00    -0.053 A 
ATOM     52  C   UNL     1      49.763  18.190  20.105  0.00  0.00    +0.143 A 
BRANCH   3   2
ATOM      1  C   UNL     1      51.414  19.712  17.354  0.00  0.00    +0.229 C 
ATOM      2  O   UNL     1      50.790  18.596  17.991  0.00  0.00    -0.296 OA
ENDBRANCH   3   2
BRANCH  52  53
ATOM     53  O   UNL     1      50.708  17.259  20.395  0.00  0.00    -0.263 OA
BRANCH  53  54
ATOM     54  C   UNL     1      50.286  15.895  20.431  0.00  0.00    +0.113 C 
BRANCH  54  55
ATOM     55  C   UNL     1      51.347  15.059  21.100  0.00  0.00    +0.502 C 
ATOM     56  O   UNL     1      51.234  14.757  22.276  0.00  0.00    -0.687 OA
ATOM     57  O   UNL     1      52.317  14.684  20.465  0.00  0.00    -0.668 OA
ENDBRANCH  54  55
ENDBRANCH  53  54
ENDBRANCH  52  53
ENDBRANCH   6   5
ENDBRANCH   8   7
ENDBRANCH   9   8
ENDBRANCH  10   9
ENDBRANCH  11  10
ENDBRANCH  12  11
ENDBRANCH  13  12
ENDBRANCH  14  13
ENDBRANCH  15  14
ENDBRANCH  16  15
ENDBRANCH  17  16
ENDBRANCH  18  17
ENDBRANCH  19  18
ENDBRANCH  20  19
BRANCH  20  21
ATOM     21  C   UNL     1      46.383  15.898  19.737  0.00  0.00    -0.000 C 
BRANCH  21  22
ATOM     22  C   UNL     1      45.621  14.585  19.554  0.00  0.00    -0.000 C 
BRANCH  22  23
ATOM     23  C   UNL     1      45.765  13.731  20.816  0.00  0.00    -0.000 C 
BRANCH  23  24
ATOM     24  C   UNL     1      46.361  14.580  21.940  0.00  0.00    -0.000 C 
BRANCH  24  25
ATOM     25  C   UNL     1      47.738  14.032  22.318  0.00  0.00    -0.001 C 
BRANCH  25  26
ATOM     26  C   UNL     1      47.707  12.503  22.281  0.00  0.00    +0.000 C 
BRANCH  26  27
ATOM     27  C   UNL     1      49.135  11.962  22.372  0.00  0.00    -0.001 C 
BRANCH  27  28
ATOM     28  C   UNL     1      49.300  10.792  21.398  0.00  0.00    +0.002 C 
BRANCH  28  29
ATOM     29  C   UNL     1      50.750  10.733  20.914  0.00  0.00    +0.004 C 
BRANCH  29  30
ATOM     30  C   UNL     1      50.879  11.500  19.598  0.00  0.00    +0.009 C 
BRANCH  30  31
ATOM     31  C   UNL     1      52.292  11.318  19.037  0.00  0.00    +0.033 C 
BRANCH  31  32
ATOM     32  C   UNL     1      52.493  12.257  17.846  0.00  0.00    +0.096 C 
BRANCH  32  33
ATOM     33  C   UNL     1      52.385  11.472  16.564  0.00  0.00    +0.459 C 
ATOM     48  O   UNL     1      53.229  10.655  16.283  0.00  0.00    -0.520 OA
BRANCH  33  34
ATOM     34  O   UNL     1      51.351  11.682  15.735  0.00  0.00    -0.337 OA
BRANCH  34  35
ATOM     35  C   UNL     1      51.546  11.350  14.358  0.00  0.00    +0.198 C 
BRANCH  35  36
ATOM     36  C   UNL     1      50.540  12.121  13.500  0.00  0.00    +0.156 C 
BRANCH  36  37
ATOM     37  O   UNL     1      49.751  12.968  14.337  0.00  0.00    -0.334 OA
BRANCH  37  38
ATOM     38  C   UNL     1      48.351  12.684  14.298  0.00  0.00    +0.095 C 
BRANCH  38  39
ATOM     39  C   UNL     1      47.781  12.775  15.689  0.00  0.00    +0.501 C 
ATOM     40  O   UNL     1      46.846  12.062  16.014  0.00  0.00    -0.708 OA
ATOM     41  O   UNL     1      48.254  13.562  16.492  0.00  0.00    -0.676 OA
ENDBRANCH  38  39
ENDBRANCH  37  38
ENDBRANCH  36  37
BRANCH  36  42
ATOM     42  C   UNL     1      51.292  12.972  12.476  0.00  0.00    +0.164 C 
BRANCH  42  43
ATOM     43  O   UNL     1      50.891  12.596  11.157  0.00  0.00    -0.343 OA
BRANCH  43  44
ATOM     44  C   UNL     1      51.114  11.218  10.852  0.00  0.00    +0.081 C 
BRANCH  44  45
ATOM     45  C   UNL     1      51.430  11.072   9.386  0.00  0.00    +0.499 C 
ATOM     46  O   UNL     1      52.589  11.040   9.012  0.00  0.00    -0.708 OA
ATOM     47  O   UNL     1      50.525  10.988   8.573  0.00  0.00    -0.668 OA
ENDBRANCH  44  45
ENDBRANCH  43  44
ENDBRANCH  42  43
ENDBRANCH  36  42
ENDBRANCH  35  36
ENDBRANCH  34  35
ENDBRANCH  33  34
ENDBRANCH  32  33
ENDBRANCH  31  32
ENDBRANCH  30  31
ENDBRANCH  29  30
ENDBRANCH  28  29
ENDBRANCH  27  28
ENDBRANCH  26  27
ENDBRANCH  25  26
ENDBRANCH  24  25
ENDBRANCH  23  24
ENDBRANCH  22  23
ENDBRANCH  21  22
ENDBRANCH  20  21
TORSDOF 41
ENDMDL
