MODEL 1
REMARK VINA RESULT:      -6.9      0.000      0.000
REMARK  Name = ZINC95485891
REMARK  9 active torsions:
REMARK  status: ('A' for Active; 'I' for Inactive)
REMARK    1  A    between atoms: C1_1  and  C2_2
REMARK    2  A    between atoms: C2_2  and  O2_4
REMARK    3  A    between atoms: O2_4  and  C3_5
REMARK    4  A    between atoms: C6_10  and  C28_40
REMARK    5  A    between atoms: C10_15  and  C11_16
REMARK    6  A    between atoms: C10_15  and  C12_17
REMARK    7  A    between atoms: C14_20  and  C27_39
REMARK    8  A    between atoms: C18_28  and  C23_34
REMARK    9  A    between atoms: C19_30  and  C22_33
REMARK                            x       y       z     vdW  Elec       q    Type
REMARK                         _______ _______ _______ _____ _____    ______ ____
ROOT
ATOM      4  C   UNL     1      48.684  17.612  19.955  0.00  0.00    +0.182 C 
ATOM      5  C   UNL     1      50.163  17.734  19.559  0.00  0.00    +0.045 C 
ATOM      6  C   UNL     1      50.295  18.775  18.453  0.00  0.00    +0.016 C 
ATOM      7  C   UNL     1      49.864  20.148  18.948  0.00  0.00    -0.018 C 
ATOM      8  C   UNL     1      50.798  20.698  20.016  0.00  0.00    +0.046 C 
ATOM      9  C   UNL     1      48.429  20.054  19.446  0.00  0.00    +0.020 C 
ATOM     10  C   UNL     1      47.858  21.376  19.923  0.00  0.00    +0.034 C 
ATOM     11  C   UNL     1      46.339  21.315  20.073  0.00  0.00    +0.054 C 
ATOM     12  C   UNL     1      45.763  19.918  20.073  0.00  0.00    -0.056 C 
ATOM     13  C   UNL     1      45.472  19.488  18.632  0.00  0.00    +0.060 C 
ATOM     14  C   UNL     1      44.396  19.881  20.765  0.00  0.00    +0.278 C 
ATOM     20  O   UNL     1      43.810  18.593  20.687  0.00  0.00    -0.335 OA
ATOM     21  C   UNL     1      44.504  17.489  20.977  0.00  0.00    +0.507 C 
ATOM     22  O   UNL     1      43.944  16.422  21.080  0.00  0.00    -0.436 OA
ATOM     23  C   UNL     1      46.008  17.585  21.178  0.00  0.00    +0.113 C 
ATOM     24  O   UNL     1      46.381  18.596  22.129  0.00  0.00    -0.326 OA
ATOM     25  C   UNL     1      46.664  18.890  20.741  0.00  0.00    +0.073 C 
ATOM     26  C   UNL     1      49.919  21.125  17.795  0.00  0.00    +0.068 C 
ATOM     27  C   UNL     1      50.868  21.030  16.875  0.00  0.00    -0.091 C 
ATOM     28  C   UNL     1      51.879  19.977  16.937  0.00  0.00    +0.393 C 
ATOM     29  O   UNL     1      52.908  20.084  16.288  0.00  0.00    -0.453 OA
ATOM     30  C   UNL     1      51.649  18.733  17.768  0.00  0.00    -0.089 C 
ATOM     31  C   UNL     1      51.670  17.525  16.802  0.00  0.00    +0.052 C 
ATOM     32  C   UNL     1      52.801  18.548  18.761  0.00  0.00    +0.058 C 
ATOM     33  C   UNL     1      48.173  18.957  20.465  0.00  0.00    -0.004 C 
ATOM     34  C   UNL     1      48.830  19.244  21.827  0.00  0.00    +0.069 C 
ENDROOT
BRANCH  14  15
ATOM     15  C   UNL     1      43.488  20.871  20.085  0.00  0.00    -0.187 A 
ATOM     16  C   UNL     1      42.299  20.577  19.378  0.00  0.00    -0.046 A 
ATOM     17  C   UNL     1      41.807  21.750  18.937  0.00  0.00    +0.173 A 
ATOM     18  O   UNL     1      42.630  22.733  19.338  0.00  0.00    -0.171 OA
ATOM     19  C   UNL     1      43.648  22.206  20.038  0.00  0.00    +0.204 A 
ENDBRANCH  14  15
BRANCH   4   3
ATOM      3  O   UNL     1      47.921  17.196  18.824  0.00  0.00    -0.341 OA
BRANCH   3   2
ATOM      1  C   UNL     1      48.477  15.469  17.148  0.00  0.00    +0.156 C 
ATOM      2  C   UNL     1      47.968  15.894  18.502  0.00  0.00    +0.456 C 
ATOM     35  O   UNL     1      47.603  15.061  19.299  0.00  0.00    -0.505 OA
ENDBRANCH   3   2
ENDBRANCH   4   3
TORSDOF 3
ENDMDL
MODEL 2
REMARK VINA RESULT:      -6.6      1.532      2.143
REMARK  Name = ZINC95485891
REMARK  9 active torsions:
REMARK  status: ('A' for Active; 'I' for Inactive)
REMARK    1  A    between atoms: C1_1  and  C2_2
REMARK    2  A    between atoms: C2_2  and  O2_4
REMARK    3  A    between atoms: O2_4  and  C3_5
REMARK    4  A    between atoms: C6_10  and  C28_40
REMARK    5  A    between atoms: C10_15  and  C11_16
REMARK    6  A    between atoms: C10_15  and  C12_17
REMARK    7  A    between atoms: C14_20  and  C27_39
REMARK    8  A    between atoms: C18_28  and  C23_34
REMARK    9  A    between atoms: C19_30  and  C22_33
REMARK                            x       y       z     vdW  Elec       q    Type
REMARK                         _______ _______ _______ _____ _____    ______ ____
ROOT
ATOM      4  C   UNL     1      47.297  17.065  20.476  0.00  0.00    +0.182 C 
ATOM      5  C   UNL     1      48.646  16.429  20.107  0.00  0.00    +0.045 C 
ATOM      6  C   UNL     1      49.231  17.171  18.910  0.00  0.00    +0.016 C 
ATOM      7  C   UNL     1      49.517  18.624  19.261  0.00  0.00    -0.018 C 
ATOM      8  C   UNL     1      50.625  18.763  20.295  0.00  0.00    +0.046 C 
ATOM      9  C   UNL     1      48.222  19.273  19.730  0.00  0.00    +0.020 C 
ATOM     10  C   UNL     1      48.360  20.746  20.065  0.00  0.00    +0.034 C 
ATOM     11  C   UNL     1      47.000  21.430  20.183  0.00  0.00    +0.054 C 
ATOM     12  C   UNL     1      45.829  20.482  20.302  0.00  0.00    -0.056 C 
ATOM     13  C   UNL     1      45.334  20.106  18.902  0.00  0.00    +0.060 C 
ATOM     14  C   UNL     1      44.626  21.166  20.960  0.00  0.00    +0.278 C 
ATOM     20  O   UNL     1      43.496  20.311  20.991  0.00  0.00    -0.335 OA
ATOM     21  C   UNL     1      43.587  19.044  21.402  0.00  0.00    +0.507 C 
ATOM     22  O   UNL     1      42.590  18.387  21.593  0.00  0.00    -0.436 OA
ATOM     23  C   UNL     1      44.960  18.431  21.630  0.00  0.00    +0.113 C 
ATOM     24  O   UNL     1      45.792  19.229  22.489  0.00  0.00    -0.326 OA
ATOM     25  C   UNL     1      46.148  19.218  21.087  0.00  0.00    +0.073 C 
ATOM     26  C   UNL     1      50.003  19.343  18.022  0.00  0.00    +0.068 C 
ATOM     27  C   UNL     1      50.770  18.719  17.139  0.00  0.00    -0.091 C 
ATOM     28  C   UNL     1      51.159  17.324  17.326  0.00  0.00    +0.393 C 
ATOM     29  O   UNL     1      52.099  16.866  16.695  0.00  0.00    -0.453 OA
ATOM     30  C   UNL     1      50.385  16.425  18.267  0.00  0.00    -0.089 C 
ATOM     31  C   UNL     1      49.806  15.266  17.421  0.00  0.00    +0.052 C 
ATOM     32  C   UNL     1      51.334  15.810  19.300  0.00  0.00    +0.058 C 
ATOM     33  C   UNL     1      47.500  18.533  20.843  0.00  0.00    -0.004 C 
ATOM     34  C   UNL     1      48.247  18.602  22.187  0.00  0.00    +0.069 C 
ENDROOT
BRANCH  14  15
ATOM     15  C   UNL     1      44.282  22.399  20.166  0.00  0.00    -0.187 A 
ATOM     16  C   UNL     1      45.112  23.524  19.956  0.00  0.00    -0.046 A 
ATOM     17  C   UNL     1      44.414  24.386  19.194  0.00  0.00    +0.173 A 
ATOM     18  O   UNL     1      43.212  23.846  18.934  0.00  0.00    -0.171 OA
ATOM     19  C   UNL     1      43.128  22.639  19.517  0.00  0.00    +0.204 A 
ENDBRANCH  14  15
BRANCH   4   3
ATOM      3  O   UNL     1      46.401  16.956  19.372  0.00  0.00    -0.341 OA
BRANCH   3   2
ATOM      1  C   UNL     1      45.151  14.982  20.171  0.00  0.00    +0.156 C 
ATOM      2  C   UNL     1      45.906  15.737  19.107  0.00  0.00    +0.456 C 
ATOM     35  O   UNL     1      46.065  15.244  18.015  0.00  0.00    -0.505 OA
ENDBRANCH   3   2
ENDBRANCH   4   3
TORSDOF 3
ENDMDL
MODEL 3
REMARK VINA RESULT:      -6.1      3.655      7.199
REMARK  Name = ZINC95485891
REMARK  9 active torsions:
REMARK  status: ('A' for Active; 'I' for Inactive)
REMARK    1  A    between atoms: C1_1  and  C2_2
REMARK    2  A    between atoms: C2_2  and  O2_4
REMARK    3  A    between atoms: O2_4  and  C3_5
REMARK    4  A    between atoms: C6_10  and  C28_40
REMARK    5  A    between atoms: C10_15  and  C11_16
REMARK    6  A    between atoms: C10_15  and  C12_17
REMARK    7  A    between atoms: C14_20  and  C27_39
REMARK    8  A    between atoms: C18_28  and  C23_34
REMARK    9  A    between atoms: C19_30  and  C22_33
REMARK                            x       y       z     vdW  Elec       q    Type
REMARK                         _______ _______ _______ _____ _____    ______ ____
ROOT
ATOM      4  C   UNL     1      48.578  14.393  19.526  0.00  0.00    +0.182 C 
ATOM      5  C   UNL     1      48.130  13.001  19.057  0.00  0.00    +0.045 C 
ATOM      6  C   UNL     1      47.943  13.025  17.544  0.00  0.00    +0.016 C 
ATOM      7  C   UNL     1      49.261  13.316  16.841  0.00  0.00    -0.018 C 
ATOM      8  C   UNL     1      50.273  12.193  17.019  0.00  0.00    +0.046 C 
ATOM      9  C   UNL     1      49.797  14.647  17.349  0.00  0.00    +0.020 C 
ATOM     10  C   UNL     1      51.091  15.080  16.686  0.00  0.00    +0.034 C 
ATOM     11  C   UNL     1      51.399  16.552  16.954  0.00  0.00    +0.054 C 
ATOM     12  C   UNL     1      50.594  17.168  18.075  0.00  0.00    -0.056 C 
ATOM     13  C   UNL     1      49.279  17.717  17.513  0.00  0.00    +0.060 C 
ATOM     14  C   UNL     1      51.302  18.396  18.657  0.00  0.00    +0.278 C 
ATOM     20  O   UNL     1      50.510  19.031  19.645  0.00  0.00    -0.335 OA
ATOM     21  C   UNL     1      49.914  18.338  20.619  0.00  0.00    +0.507 C 
ATOM     22  O   UNL     1      49.395  18.908  21.550  0.00  0.00    -0.436 OA
ATOM     23  C   UNL     1      49.894  16.819  20.547  0.00  0.00    +0.113 C 
ATOM     24  O   UNL     1      51.200  16.253  20.344  0.00  0.00    -0.326 OA
ATOM     25  C   UNL     1      50.299  16.202  19.213  0.00  0.00    +0.073 C 
ATOM     26  C   UNL     1      49.010  13.426  15.353  0.00  0.00    +0.068 C 
ATOM     27  C   UNL     1      48.110  12.653  14.762  0.00  0.00    -0.091 C 
ATOM     28  C   UNL     1      47.327  11.684  15.526  0.00  0.00    +0.393 C 
ATOM     29  O   UNL     1      46.748  10.779  14.946  0.00  0.00    -0.453 OA
ATOM     30  C   UNL     1      47.192  11.811  17.028  0.00  0.00    -0.089 C 
ATOM     31  C   UNL     1      45.689  11.999  17.340  0.00  0.00    +0.052 C 
ATOM     32  C   UNL     1      47.643  10.513  17.704  0.00  0.00    +0.058 C 
ATOM     33  C   UNL     1      49.902  14.762  18.860  0.00  0.00    -0.004 C 
ATOM     34  C   UNL     1      51.010  13.871  19.450  0.00  0.00    +0.069 C 
ENDROOT
BRANCH  14  15
ATOM     15  C   UNL     1      51.564  19.373  17.540  0.00  0.00    -0.187 A 
ATOM     16  C   UNL     1      51.139  20.720  17.483  0.00  0.00    -0.046 A 
ATOM     17  C   UNL     1      51.589  21.221  16.317  0.00  0.00    +0.173 A 
ATOM     18  O   UNL     1      52.259  20.254  15.670  0.00  0.00    -0.171 OA
ATOM     19  C   UNL     1      52.251  19.132  16.409  0.00  0.00    +0.204 A 
ENDBRANCH  14  15
BRANCH   4   3
ATOM      3  O   UNL     1      47.578  15.354  19.190  0.00  0.00    -0.341 OA
BRANCH   3   2
ATOM      1  C   UNL     1      46.532  15.514  21.421  0.00  0.00    +0.156 C 
ATOM      2  C   UNL     1      46.455  15.347  19.925  0.00  0.00    +0.456 C 
ATOM     35  O   UNL     1      45.382  15.206  19.388  0.00  0.00    -0.505 OA
ENDBRANCH   3   2
ENDBRANCH   4   3
TORSDOF 3
ENDMDL
MODEL 4
REMARK VINA RESULT:      -6.1      2.091      7.001
REMARK  Name = ZINC95485891
REMARK  9 active torsions:
REMARK  status: ('A' for Active; 'I' for Inactive)
REMARK    1  A    between atoms: C1_1  and  C2_2
REMARK    2  A    between atoms: C2_2  and  O2_4
REMARK    3  A    between atoms: O2_4  and  C3_5
REMARK    4  A    between atoms: C6_10  and  C28_40
REMARK    5  A    between atoms: C10_15  and  C11_16
REMARK    6  A    between atoms: C10_15  and  C12_17
REMARK    7  A    between atoms: C14_20  and  C27_39
REMARK    8  A    between atoms: C18_28  and  C23_34
REMARK    9  A    between atoms: C19_30  and  C22_33
REMARK                            x       y       z     vdW  Elec       q    Type
REMARK                         _______ _______ _______ _____ _____    ______ ____
ROOT
ATOM      4  C   UNL     1      45.777  17.095  19.379  0.00  0.00    +0.182 C 
ATOM      5  C   UNL     1      44.817  18.267  19.633  0.00  0.00    +0.045 C 
ATOM      6  C   UNL     1      45.511  19.292  20.522  0.00  0.00    +0.016 C 
ATOM      7  C   UNL     1      46.733  19.874  19.825  0.00  0.00    -0.018 C 
ATOM      8  C   UNL     1      46.362  20.708  18.608  0.00  0.00    +0.046 C 
ATOM      9  C   UNL     1      47.674  18.733  19.464  0.00  0.00    +0.020 C 
ATOM     10  C   UNL     1      48.962  19.186  18.804  0.00  0.00    +0.034 C 
ATOM     11  C   UNL     1      50.009  18.075  18.785  0.00  0.00    +0.054 C 
ATOM     12  C   UNL     1      49.467  16.695  19.078  0.00  0.00    -0.056 C 
ATOM     13  C   UNL     1      49.480  16.455  20.591  0.00  0.00    +0.060 C 
ATOM     14  C   UNL     1      50.383  15.606  18.511  0.00  0.00    +0.278 C 
ATOM     20  O   UNL     1      49.928  14.311  18.862  0.00  0.00    -0.335 OA
ATOM     21  C   UNL     1      48.649  13.956  18.721  0.00  0.00    +0.507 C 
ATOM     22  O   UNL     1      48.313  12.801  18.852  0.00  0.00    -0.436 OA
ATOM     23  C   UNL     1      47.612  15.018  18.391  0.00  0.00    +0.113 C 
ATOM     24  O   UNL     1      47.972  15.814  17.249  0.00  0.00    -0.326 OA
ATOM     25  C   UNL     1      48.063  16.467  18.537  0.00  0.00    +0.073 C 
ATOM     26  C   UNL     1      47.443  20.810  20.778  0.00  0.00    +0.068 C 
ATOM     27  C   UNL     1      46.753  21.561  21.625  0.00  0.00    -0.091 C 
ATOM     28  C   UNL     1      45.294  21.501  21.673  0.00  0.00    +0.393 C 
ATOM     29  O   UNL     1      44.667  22.400  22.212  0.00  0.00    -0.453 OA
ATOM     30  C   UNL     1      44.550  20.316  21.097  0.00  0.00    -0.089 C 
ATOM     31  C   UNL     1      43.770  19.654  22.258  0.00  0.00    +0.052 C 
ATOM     32  C   UNL     1      43.522  20.795  20.068  0.00  0.00    +0.058 C 
ATOM     33  C   UNL     1      47.036  17.600  18.679  0.00  0.00    -0.004 C 
ATOM     34  C   UNL     1      46.666  18.005  17.241  0.00  0.00    +0.069 C 
ENDROOT
BRANCH  14  15
ATOM     15  C   UNL     1      51.767  15.804  19.072  0.00  0.00    -0.187 A 
ATOM     16  C   UNL     1      52.325  15.146  20.192  0.00  0.00    -0.046 A 
ATOM     17  C   UNL     1      53.575  15.620  20.341  0.00  0.00    +0.173 A 
ATOM     18  O   UNL     1      53.803  16.525  19.375  0.00  0.00    -0.171 OA
ATOM     19  C   UNL     1      52.712  16.637  18.600  0.00  0.00    +0.204 A 
ENDBRANCH  14  15
BRANCH   4   3
ATOM      3  O   UNL     1      46.120  16.484  20.622  0.00  0.00    -0.341 OA
BRANCH   3   2
ATOM      1  C   UNL     1      44.491  15.954  22.401  0.00  0.00    +0.156 C 
ATOM      2  C   UNL     1      45.238  15.613  21.137  0.00  0.00    +0.456 C 
ATOM     35  O   UNL     1      45.042  14.555  20.587  0.00  0.00    -0.505 OA
ENDBRANCH   3   2
ENDBRANCH   4   3
TORSDOF 3
ENDMDL
MODEL 5
REMARK VINA RESULT:      -6.0      2.148      6.661
REMARK  Name = ZINC95485891
REMARK  9 active torsions:
REMARK  status: ('A' for Active; 'I' for Inactive)
REMARK    1  A    between atoms: C1_1  and  C2_2
REMARK    2  A    between atoms: C2_2  and  O2_4
REMARK    3  A    between atoms: O2_4  and  C3_5
REMARK    4  A    between atoms: C6_10  and  C28_40
REMARK    5  A    between atoms: C10_15  and  C11_16
REMARK    6  A    between atoms: C10_15  and  C12_17
REMARK    7  A    between atoms: C14_20  and  C27_39
REMARK    8  A    between atoms: C18_28  and  C23_34
REMARK    9  A    between atoms: C19_30  and  C22_33
REMARK                            x       y       z     vdW  Elec       q    Type
REMARK                         _______ _______ _______ _____ _____    ______ ____
ROOT
ATOM      4  C   UNL     1      47.610  19.291  20.519  0.00  0.00    +0.182 C 
ATOM      5  C   UNL     1      46.780  20.524  20.906  0.00  0.00    +0.045 C 
ATOM      6  C   UNL     1      45.514  20.554  20.058  0.00  0.00    +0.016 C 
ATOM      7  C   UNL     1      44.643  19.338  20.341  0.00  0.00    -0.018 C 
ATOM      8  C   UNL     1      44.080  19.347  21.755  0.00  0.00    +0.046 C 
ATOM      9  C   UNL     1      45.459  18.083  20.066  0.00  0.00    +0.020 C 
ATOM     10  C   UNL     1      44.686  16.793  20.263  0.00  0.00    +0.034 C 
ATOM     11  C   UNL     1      45.411  15.599  19.645  0.00  0.00    +0.054 C 
ATOM     12  C   UNL     1      46.859  15.854  19.296  0.00  0.00    -0.056 C 
ATOM     13  C   UNL     1      46.946  16.430  17.880  0.00  0.00    +0.060 C 
ATOM     14  C   UNL     1      47.652  14.545  19.225  0.00  0.00    +0.278 C 
ATOM     20  O   UNL     1      48.987  14.770  18.810  0.00  0.00    -0.335 OA
ATOM     21  C   UNL     1      49.737  15.734  19.350  0.00  0.00    +0.507 C 
ATOM     22  O   UNL     1      50.921  15.796  19.115  0.00  0.00    -0.436 OA
ATOM     23  C   UNL     1      49.087  16.758  20.268  0.00  0.00    +0.113 C 
ATOM     24  O   UNL     1      48.324  16.154  21.326  0.00  0.00    -0.326 OA
ATOM     25  C   UNL     1      47.562  16.787  20.271  0.00  0.00    +0.073 C 
ATOM     26  C   UNL     1      43.450  19.360  19.411  0.00  0.00    +0.068 C 
ATOM     27  C   UNL     1      42.881  20.508  19.072  0.00  0.00    -0.091 C 
ATOM     28  C   UNL     1      43.391  21.782  19.573  0.00  0.00    +0.393 C 
ATOM     29  O   UNL     1      42.690  22.781  19.518  0.00  0.00    -0.453 OA
ATOM     30  C   UNL     1      44.796  21.889  20.125  0.00  0.00    -0.089 C 
ATOM     31  C   UNL     1      45.562  22.900  19.237  0.00  0.00    +0.052 C 
ATOM     32  C   UNL     1      44.757  22.462  21.545  0.00  0.00    +0.058 C 
ATOM     33  C   UNL     1      46.801  18.021  20.775  0.00  0.00    -0.004 C 
ATOM     34  C   UNL     1      46.663  17.829  22.296  0.00  0.00    +0.069 C 
ENDROOT
BRANCH  14  15
ATOM     15  C   UNL     1      46.980  13.631  18.234  0.00  0.00    -0.187 A 
ATOM     16  C   UNL     1      45.769  12.927  18.424  0.00  0.00    -0.046 A 
ATOM     17  C   UNL     1      45.538  12.236  17.292  0.00  0.00    +0.173 A 
ATOM     18  O   UNL     1      46.540  12.483  16.433  0.00  0.00    -0.171 OA
ATOM     19  C   UNL     1      47.415  13.332  16.997  0.00  0.00    +0.204 A 
ENDBRANCH  14  15
BRANCH   4   3
ATOM      3  O   UNL     1      47.969  19.371  19.140  0.00  0.00    -0.341 OA
BRANCH   3   2
ATOM      1  C   UNL     1      49.932  20.784  19.640  0.00  0.00    +0.156 C 
ATOM      2  C   UNL     1      49.242  19.694  18.860  0.00  0.00    +0.456 C 
ATOM     35  O   UNL     1      49.834  19.111  17.983  0.00  0.00    -0.505 OA
ENDBRANCH   3   2
ENDBRANCH   4   3
TORSDOF 3
ENDMDL
MODEL 6
REMARK VINA RESULT:      -6.0      2.902      6.953
REMARK  Name = ZINC95485891
REMARK  9 active torsions:
REMARK  status: ('A' for Active; 'I' for Inactive)
REMARK    1  A    between atoms: C1_1  and  C2_2
REMARK    2  A    between atoms: C2_2  and  O2_4
REMARK    3  A    between atoms: O2_4  and  C3_5
REMARK    4  A    between atoms: C6_10  and  C28_40
REMARK    5  A    between atoms: C10_15  and  C11_16
REMARK    6  A    between atoms: C10_15  and  C12_17
REMARK    7  A    between atoms: C14_20  and  C27_39
REMARK    8  A    between atoms: C18_28  and  C23_34
REMARK    9  A    between atoms: C19_30  and  C22_33
REMARK                            x       y       z     vdW  Elec       q    Type
REMARK                         _______ _______ _______ _____ _____    ______ ____
ROOT
ATOM      4  C   UNL     1      49.536  16.598  19.410  0.00  0.00    +0.182 C 
ATOM      5  C   UNL     1      49.130  17.979  19.944  0.00  0.00    +0.045 C 
ATOM      6  C   UNL     1      47.937  18.488  19.142  0.00  0.00    +0.016 C 
ATOM      7  C   UNL     1      46.731  17.578  19.329  0.00  0.00    -0.018 C 
ATOM      8  C   UNL     1      46.195  17.613  20.753  0.00  0.00    +0.046 C 
ATOM      9  C   UNL     1      47.118  16.169  18.904  0.00  0.00    +0.020 C 
ATOM     10  C   UNL     1      45.982  15.168  18.995  0.00  0.00    +0.034 C 
ATOM     11  C   UNL     1      46.300  13.880  18.238  0.00  0.00    +0.054 C 
ATOM     12  C   UNL     1      47.756  13.710  17.873  0.00  0.00    -0.056 C 
ATOM     13  C   UNL     1      48.021  14.376  16.519  0.00  0.00    +0.060 C 
ATOM     14  C   UNL     1      48.104  12.235  17.646  0.00  0.00    +0.278 C 
ATOM     20  O   UNL     1      49.444  12.078  17.215  0.00  0.00    -0.335 OA
ATOM     21  C   UNL     1      50.455  12.701  17.825  0.00  0.00    +0.507 C 
ATOM     22  O   UNL     1      51.600  12.418  17.561  0.00  0.00    -0.436 OA
ATOM     23  C   UNL     1      50.153  13.773  18.861  0.00  0.00    +0.113 C 
ATOM     24  O   UNL     1      49.238  13.327  19.876  0.00  0.00    -0.326 OA
ATOM     25  C   UNL     1      48.713  14.272  18.914  0.00  0.00    +0.073 C 
ATOM     26  C   UNL     1      45.606  18.066  18.443  0.00  0.00    +0.068 C 
ATOM     27  C   UNL     1      45.422  19.362  18.239  0.00  0.00    -0.091 C 
ATOM     28  C   UNL     1      46.301  20.356  18.848  0.00  0.00    +0.393 C 
ATOM     29  O   UNL     1      45.945  21.522  18.916  0.00  0.00    -0.453 OA
ATOM     30  C   UNL     1      47.670  19.965  19.365  0.00  0.00    -0.089 C 
ATOM     31  C   UNL     1      48.713  20.776  18.560  0.00  0.00    +0.052 C 
ATOM     32  C   UNL     1      47.808  20.370  20.835  0.00  0.00    +0.058 C 
ATOM     33  C   UNL     1      48.372  15.621  19.562  0.00  0.00    -0.004 C 
ATOM     34  C   UNL     1      48.178  15.323  21.060  0.00  0.00    +0.069 C 
ENDROOT
BRANCH  14  15
ATOM     15  C   UNL     1      47.183  11.682  16.590  0.00  0.00    -0.187 A 
ATOM     16  C   UNL     1      45.846  11.261  16.774  0.00  0.00    -0.046 A 
ATOM     17  C   UNL     1      45.401  10.842  15.575  0.00  0.00    +0.173 A 
ATOM     18  O   UNL     1      46.392  10.986  14.680  0.00  0.00    -0.171 OA
ATOM     19  C   UNL     1      47.474  11.500  15.289  0.00  0.00    +0.204 A 
ENDBRANCH  14  15
BRANCH   4   3
ATOM      3  O   UNL     1      49.905  16.707  18.036  0.00  0.00    -0.341 OA
BRANCH   3   2
ATOM      1  C   UNL     1      51.209  18.404  16.803  0.00  0.00    +0.156 C 
ATOM      2  C   UNL     1      51.103  17.251  17.769  0.00  0.00    +0.456 C 
ATOM     35  O   UNL     1      52.096  16.816  18.302  0.00  0.00    -0.505 OA
ENDBRANCH   3   2
ENDBRANCH   4   3
TORSDOF 3
ENDMDL
MODEL 7
REMARK VINA RESULT:      -5.7      2.033      7.302
REMARK  Name = ZINC95485891
REMARK  9 active torsions:
REMARK  status: ('A' for Active; 'I' for Inactive)
REMARK    1  A    between atoms: C1_1  and  C2_2
REMARK    2  A    between atoms: C2_2  and  O2_4
REMARK    3  A    between atoms: O2_4  and  C3_5
REMARK    4  A    between atoms: C6_10  and  C28_40
REMARK    5  A    between atoms: C10_15  and  C11_16
REMARK    6  A    between atoms: C10_15  and  C12_17
REMARK    7  A    between atoms: C14_20  and  C27_39
REMARK    8  A    between atoms: C18_28  and  C23_34
REMARK    9  A    between atoms: C19_30  and  C22_33
REMARK                            x       y       z     vdW  Elec       q    Type
REMARK                         _______ _______ _______ _____ _____    ______ ____
ROOT
ATOM      4  C   UNL     1      47.710  19.747  21.766  0.00  0.00    +0.182 C 
ATOM      5  C   UNL     1      46.198  19.779  22.031  0.00  0.00    +0.045 C 
ATOM      6  C   UNL     1      45.467  19.971  20.707  0.00  0.00    +0.016 C 
ATOM      7  C   UNL     1      45.720  18.796  19.773  0.00  0.00    -0.018 C 
ATOM      8  C   UNL     1      45.106  17.503  20.292  0.00  0.00    +0.046 C 
ATOM      9  C   UNL     1      47.221  18.662  19.559  0.00  0.00    +0.020 C 
ATOM     10  C   UNL     1      47.607  17.551  18.601  0.00  0.00    +0.034 C 
ATOM     11  C   UNL     1      49.058  17.677  18.143  0.00  0.00    +0.054 C 
ATOM     12  C   UNL     1      49.899  18.620  18.971  0.00  0.00    -0.056 C 
ATOM     13  C   UNL     1      49.771  20.040  18.411  0.00  0.00    +0.060 C 
ATOM     14  C   UNL     1      51.390  18.293  18.844  0.00  0.00    +0.278 C 
ATOM     20  O   UNL     1      52.188  19.230  19.545  0.00  0.00    -0.335 OA
ATOM     21  C   UNL     1      51.903  19.597  20.797  0.00  0.00    +0.507 C 
ATOM     22  O   UNL     1      52.689  20.253  21.439  0.00  0.00    -0.436 OA
ATOM     23  C   UNL     1      50.576  19.179  21.412  0.00  0.00    +0.113 C 
ATOM     24  O   UNL     1      50.331  17.767  21.304  0.00  0.00    -0.326 OA
ATOM     25  C   UNL     1      49.534  18.620  20.449  0.00  0.00    +0.073 C 
ATOM     26  C   UNL     1      45.058  19.074  18.442  0.00  0.00    +0.068 C 
ATOM     27  C   UNL     1      43.900  19.716  18.387  0.00  0.00    -0.091 C 
ATOM     28  C   UNL     1      43.235  20.185  19.600  0.00  0.00    +0.393 C 
ATOM     29  O   UNL     1      42.051  20.482  19.568  0.00  0.00    -0.453 OA
ATOM     30  C   UNL     1      44.008  20.344  20.892  0.00  0.00    -0.089 C 
ATOM     31  C   UNL     1      43.933  21.837  21.291  0.00  0.00    +0.052 C 
ATOM     32  C   UNL     1      43.334  19.536  22.006  0.00  0.00    +0.058 C 
ATOM     33  C   UNL     1      48.047  18.588  20.831  0.00  0.00    -0.004 C 
ATOM     34  C   UNL     1      47.846  17.269  21.597  0.00  0.00    +0.069 C 
ENDROOT
BRANCH  14  15
ATOM     15  C   UNL     1      51.766  18.327  17.386  0.00  0.00    -0.187 A 
ATOM     16  C   UNL     1      51.844  17.221  16.509  0.00  0.00    -0.046 A 
ATOM     17  C   UNL     1      52.211  17.701  15.307  0.00  0.00    +0.173 A 
ATOM     18  O   UNL     1      52.359  19.032  15.408  0.00  0.00    -0.171 OA
ATOM     19  C   UNL     1      52.085  19.418  16.666  0.00  0.00    +0.204 A 
ENDBRANCH  14  15
BRANCH   4   3
ATOM      3  O   UNL     1      48.117  20.983  21.179  0.00  0.00    -0.341 OA
BRANCH   3   2
ATOM      1  C   UNL     1      47.360  23.019  22.354  0.00  0.00    +0.156 C 
ATOM      2  C   UNL     1      48.408  21.989  22.018  0.00  0.00    +0.456 C 
ATOM     35  O   UNL     1      49.512  22.069  22.505  0.00  0.00    -0.505 OA
ENDBRANCH   3   2
ENDBRANCH   4   3
TORSDOF 3
ENDMDL
MODEL 8
REMARK VINA RESULT:      -5.6      2.885      7.560
REMARK  Name = ZINC95485891
REMARK  9 active torsions:
REMARK  status: ('A' for Active; 'I' for Inactive)
REMARK    1  A    between atoms: C1_1  and  C2_2
REMARK    2  A    between atoms: C2_2  and  O2_4
REMARK    3  A    between atoms: O2_4  and  C3_5
REMARK    4  A    between atoms: C6_10  and  C28_40
REMARK    5  A    between atoms: C10_15  and  C11_16
REMARK    6  A    between atoms: C10_15  and  C12_17
REMARK    7  A    between atoms: C14_20  and  C27_39
REMARK    8  A    between atoms: C18_28  and  C23_34
REMARK    9  A    between atoms: C19_30  and  C22_33
REMARK                            x       y       z     vdW  Elec       q    Type
REMARK                         _______ _______ _______ _____ _____    ______ ____
ROOT
ATOM      4  C   UNL     1      48.653  17.221  18.257  0.00  0.00    +0.182 C 
ATOM      5  C   UNL     1      47.743  18.454  18.358  0.00  0.00    +0.045 C 
ATOM      6  C   UNL     1      48.108  19.238  19.614  0.00  0.00    +0.016 C 
ATOM      7  C   UNL     1      49.536  19.758  19.530  0.00  0.00    -0.018 C 
ATOM      8  C   UNL     1      49.708  20.806  18.439  0.00  0.00    +0.046 C 
ATOM      9  C   UNL     1      50.472  18.575  19.329  0.00  0.00    +0.020 C 
ATOM     10  C   UNL     1      51.939  18.955  19.280  0.00  0.00    +0.034 C 
ATOM     11  C   UNL     1      52.846  17.735  19.436  0.00  0.00    +0.054 C 
ATOM     12  C   UNL     1      52.149  16.407  19.249  0.00  0.00    -0.056 C 
ATOM     13  C   UNL     1      51.571  15.943  20.589  0.00  0.00    +0.060 C 
ATOM     14  C   UNL     1      53.144  15.308  18.862  0.00  0.00    +0.278 C 
ATOM     20  O   UNL     1      52.511  14.043  18.775  0.00  0.00    -0.335 OA
ATOM     21  C   UNL     1      51.362  13.878  18.115  0.00  0.00    +0.507 C 
ATOM     22  O   UNL     1      50.933  12.769  17.898  0.00  0.00    -0.436 OA
ATOM     23  C   UNL     1      50.596  15.101  17.635  0.00  0.00    +0.113 C 
ATOM     24  O   UNL     1      51.411  16.006  16.872  0.00  0.00    -0.326 OA
ATOM     25  C   UNL     1      51.045  16.443  18.202  0.00  0.00    +0.073 C 
ATOM     26  C   UNL     1      49.886  20.444  20.832  0.00  0.00    +0.068 C 
ATOM     27  C   UNL     1      48.973  21.141  21.494  0.00  0.00    -0.091 C 
ATOM     28  C   UNL     1      47.605  21.259  20.997  0.00  0.00    +0.393 C 
ATOM     29  O   UNL     1      46.876  22.139  21.428  0.00  0.00    -0.453 OA
ATOM     30  C   UNL     1      47.065  20.277  19.979  0.00  0.00    -0.089 C 
ATOM     31  C   UNL     1      45.863  19.553  20.632  0.00  0.00    +0.052 C 
ATOM     32  C   UNL     1      46.536  21.032  18.755  0.00  0.00    +0.058 C 
ATOM     33  C   UNL     1      50.113  17.662  18.170  0.00  0.00    -0.004 C 
ATOM     34  C   UNL     1      50.342  18.321  16.798  0.00  0.00    +0.069 C 
ENDROOT
BRANCH  14  15
ATOM     15  C   UNL     1      54.220  15.243  19.914  0.00  0.00    -0.187 A 
ATOM     16  C   UNL     1      55.471  15.901  19.881  0.00  0.00    -0.046 A 
ATOM     17  C   UNL     1      56.116  15.570  21.015  0.00  0.00    +0.173 A 
ATOM     18  O   UNL     1      55.326  14.751  21.728  0.00  0.00    -0.171 OA
ATOM     19  C   UNL     1      54.173  14.554  21.068  0.00  0.00    +0.204 A 
ENDBRANCH  14  15
BRANCH   4   3
ATOM      3  O   UNL     1      48.461  16.392  19.402  0.00  0.00    -0.341 OA
BRANCH   3   2
ATOM      1  C   UNL     1      46.395  15.740  20.588  0.00  0.00    +0.156 C 
ATOM      2  C   UNL     1      47.352  15.636  19.428  0.00  0.00    +0.456 C 
ATOM     35  O   UNL     1      47.120  14.873  18.520  0.00  0.00    -0.505 OA
ENDBRANCH   3   2
ENDBRANCH   4   3
TORSDOF 3
ENDMDL
MODEL 9
REMARK VINA RESULT:      -5.5      2.468      5.290
REMARK  Name = ZINC95485891
REMARK  9 active torsions:
REMARK  status: ('A' for Active; 'I' for Inactive)
REMARK    1  A    between atoms: C1_1  and  C2_2
REMARK    2  A    between atoms: C2_2  and  O2_4
REMARK    3  A    between atoms: O2_4  and  C3_5
REMARK    4  A    between atoms: C6_10  and  C28_40
REMARK    5  A    between atoms: C10_15  and  C11_16
REMARK    6  A    between atoms: C10_15  and  C12_17
REMARK    7  A    between atoms: C14_20  and  C27_39
REMARK    8  A    between atoms: C18_28  and  C23_34
REMARK    9  A    between atoms: C19_30  and  C22_33
REMARK                            x       y       z     vdW  Elec       q    Type
REMARK                         _______ _______ _______ _____ _____    ______ ____
ROOT
ATOM      4  C   UNL     1      49.954  16.556  19.321  0.00  0.00    +0.182 C 
ATOM      5  C   UNL     1      49.945  15.125  18.765  0.00  0.00    +0.045 C 
ATOM      6  C   UNL     1      48.533  14.560  18.872  0.00  0.00    +0.016 C 
ATOM      7  C   UNL     1      47.563  15.365  18.018  0.00  0.00    -0.018 C 
ATOM      8  C   UNL     1      47.849  15.226  16.530  0.00  0.00    +0.046 C 
ATOM      9  C   UNL     1      47.611  16.818  18.469  0.00  0.00    +0.020 C 
ATOM     10  C   UNL     1      46.646  17.723  17.727  0.00  0.00    +0.034 C 
ATOM     11  C   UNL     1      46.469  19.064  18.435  0.00  0.00    +0.054 C 
ATOM     12  C   UNL     1      47.512  19.363  19.486  0.00  0.00    -0.056 C 
ATOM     13  C   UNL     1      47.062  18.781  20.829  0.00  0.00    +0.060 C 
ATOM     14  C   UNL     1      47.628  20.869  19.742  0.00  0.00    +0.278 C 
ATOM     20  O   UNL     1      48.538  21.148  20.791  0.00  0.00    -0.335 OA
ATOM     21  C   UNL     1      49.745  20.579  20.841  0.00  0.00    +0.507 C 
ATOM     22  O   UNL     1      50.572  20.962  21.636  0.00  0.00    -0.436 OA
ATOM     23  C   UNL     1      50.074  19.441  19.887  0.00  0.00    +0.113 C 
ATOM     24  O   UNL     1      49.803  19.769  18.514  0.00  0.00    -0.326 OA
ATOM     25  C   UNL     1      48.895  18.831  19.137  0.00  0.00    +0.073 C 
ATOM     26  C   UNL     1      46.163  14.832  18.230  0.00  0.00    +0.068 C 
ATOM     27  C   UNL     1      45.956  13.536  18.411  0.00  0.00    -0.091 C 
ATOM     28  C   UNL     1      47.066  12.586  18.424  0.00  0.00    +0.393 C 
ATOM     29  O   UNL     1      46.847  11.394  18.274  0.00  0.00    -0.453 OA
ATOM     30  C   UNL     1      48.484  13.059  18.660  0.00  0.00    -0.089 C 
ATOM     31  C   UNL     1      48.990  12.368  19.949  0.00  0.00    +0.052 C 
ATOM     32  C   UNL     1      49.385  12.601  17.509  0.00  0.00    +0.058 C 
ATOM     33  C   UNL     1      48.999  17.431  18.514  0.00  0.00    -0.004 C 
ATOM     34  C   UNL     1      49.601  17.646  17.113  0.00  0.00    +0.069 C 
ENDROOT
BRANCH  14  15
ATOM     15  C   UNL     1      46.269  21.395  20.124  0.00  0.00    -0.187 A 
ATOM     16  C   UNL     1      45.252  21.824  19.240  0.00  0.00    -0.046 A 
ATOM     17  C   UNL     1      44.212  22.212  20.000  0.00  0.00    +0.173 A 
ATOM     18  O   UNL     1      44.543  22.042  21.291  0.00  0.00    -0.171 OA
ATOM     19  C   UNL     1      45.787  21.542  21.371  0.00  0.00    +0.204 A 
ENDBRANCH  14  15
BRANCH   4   3
ATOM      3  O   UNL     1      49.559  16.537  20.692  0.00  0.00    -0.341 OA
BRANCH   3   2
ATOM      1  C   UNL     1      50.164  14.967  22.500  0.00  0.00    +0.156 C 
ATOM      2  C   UNL     1      50.472  16.124  21.584  0.00  0.00    +0.456 C 
ATOM     35  O   UNL     1      51.543  16.680  21.654  0.00  0.00    -0.505 OA
ENDBRANCH   3   2
ENDBRANCH   4   3
TORSDOF 3
ENDMDL
