MODEL 1
REMARK VINA RESULT:      -6.6      0.000      0.000
REMARK  Name = ZINC14613040
REMARK  1 active torsions:
REMARK  status: ('A' for Active; 'I' for Inactive)
REMARK    1  A    between atoms: C1_1  and  N1_2
REMARK                            x       y       z     vdW  Elec       q    Type
REMARK                         _______ _______ _______ _____ _____    ______ ____
ROOT
ATOM      1  C   UNL     1      51.318  20.957  20.024  0.00  0.00    +0.228 C 
ATOM      2  N   UNL     1      51.133  19.934  18.985  0.00  0.00    -0.487 N 
ATOM      3  C   UNL     1      51.916  18.730  19.287  0.00  0.00    +0.203 C 
ATOM      4  C   UNL     1      51.815  17.737  18.125  0.00  0.00    +0.114 C 
ATOM      5  C   UNL     1      50.362  17.401  17.901  0.00  0.00    -0.051 A 
ATOM      6  C   UNL     1      49.990  16.200  17.377  0.00  0.00    +0.047 A 
ATOM      7  C   UNL     1      48.645  15.895  17.176  0.00  0.00    +0.049 A 
ATOM      8  C   UNL     1      47.658  16.808  17.520  0.00  0.00    +0.035 A 
ATOM      9  O   UNL     1      46.439  16.267  17.233  0.00  0.00    -0.302 OA
ATOM     10  C   UNL     1      46.669  14.853  17.096  0.00  0.00    +0.434 C 
ATOM     11  C   UNL     1      48.023  18.047  18.057  0.00  0.00    +0.013 A 
ATOM     12  C   UNL     1      47.024  19.051  18.433  0.00  0.00    -0.051 A 
ATOM     13  C   UNL     1      45.660  18.805  18.262  0.00  0.00    +0.071 A 
ATOM     14  C   UNL     1      44.736  19.763  18.624  0.00  0.00    +0.028 A 
ATOM     15  C   UNL     1      45.159  20.985  19.164  0.00  0.00    +0.052 A 
ATOM     16  O   UNL     1      44.054  21.744  19.432  0.00  0.00    -0.307 OA
ATOM     17  C   UNL     1      42.947  20.824  19.439  0.00  0.00    +0.432 C 
ATOM     18  C   UNL     1      46.500  21.244  19.338  0.00  0.00    +0.038 A 
ATOM     19  O   UNL     1      43.372  19.767  18.559  0.00  0.00    -0.306 OA
ATOM     20  C   UNL     1      47.456  20.284  18.975  0.00  0.00    +0.004 A 
ATOM     21  C   UNL     1      48.833  20.549  19.150  0.00  0.00    -0.034 A 
ATOM     22  O   UNL     1      48.045  14.772  16.680  0.00  0.00    -0.305 OA
ATOM     23  C   UNL     1      49.388  18.346  18.248  0.00  0.00    -0.052 A 
ATOM     24  C   UNL     1      49.781  19.639  18.808  0.00  0.00    +0.145 A 
ENDROOT
TORSDOF 0
ENDMDL
MODEL 2
REMARK VINA RESULT:      -6.5      2.718      5.301
REMARK  Name = ZINC14613040
REMARK  1 active torsions:
REMARK  status: ('A' for Active; 'I' for Inactive)
REMARK    1  A    between atoms: C1_1  and  N1_2
REMARK                            x       y       z     vdW  Elec       q    Type
REMARK                         _______ _______ _______ _____ _____    ______ ____
ROOT
ATOM      1  C   UNL     1      45.948  22.674  21.006  0.00  0.00    +0.228 C 
ATOM      2  N   UNL     1      45.757  21.233  21.219  0.00  0.00    -0.487 N 
ATOM      3  C   UNL     1      44.359  20.848  20.990  0.00  0.00    +0.203 C 
ATOM      4  C   UNL     1      44.159  19.373  21.350  0.00  0.00    +0.114 C 
ATOM      5  C   UNL     1      45.098  18.539  20.515  0.00  0.00    -0.051 A 
ATOM      6  C   UNL     1      44.793  17.253  20.185  0.00  0.00    +0.047 A 
ATOM      7  C   UNL     1      45.665  16.490  19.410  0.00  0.00    +0.049 A 
ATOM      8  C   UNL     1      46.856  17.033  18.950  0.00  0.00    +0.035 A 
ATOM      9  O   UNL     1      47.514  16.090  18.216  0.00  0.00    -0.302 OA
ATOM     10  C   UNL     1      46.523  15.101  17.884  0.00  0.00    +0.434 C 
ATOM     11  C   UNL     1      47.185  18.352  19.281  0.00  0.00    +0.013 A 
ATOM     12  C   UNL     1      48.431  18.975  18.827  0.00  0.00    -0.051 A 
ATOM     13  C   UNL     1      49.345  18.266  18.044  0.00  0.00    +0.071 A 
ATOM     14  C   UNL     1      50.511  18.871  17.626  0.00  0.00    +0.028 A 
ATOM     15  C   UNL     1      50.786  20.198  17.984  0.00  0.00    +0.052 A 
ATOM     16  O   UNL     1      51.993  20.549  17.445  0.00  0.00    -0.307 OA
ATOM     17  C   UNL     1      52.255  19.573  16.420  0.00  0.00    +0.432 C 
ATOM     18  C   UNL     1      49.898  20.911  18.756  0.00  0.00    +0.038 A 
ATOM     19  O   UNL     1      51.546  18.403  16.868  0.00  0.00    -0.306 OA
ATOM     20  C   UNL     1      48.706  20.313  19.193  0.00  0.00    +0.004 A 
ATOM     21  C   UNL     1      47.794  21.042  19.990  0.00  0.00    -0.034 A 
ATOM     22  O   UNL     1      45.568  15.205  18.957  0.00  0.00    -0.305 OA
ATOM     23  C   UNL     1      46.298  19.111  20.073  0.00  0.00    -0.052 A 
ATOM     24  C   UNL     1      46.634  20.490  20.427  0.00  0.00    +0.145 A 
ENDROOT
TORSDOF 0
ENDMDL
MODEL 3
REMARK VINA RESULT:      -6.1      1.979      5.105
REMARK  Name = ZINC14613040
REMARK  1 active torsions:
REMARK  status: ('A' for Active; 'I' for Inactive)
REMARK    1  A    between atoms: C1_1  and  N1_2
REMARK                            x       y       z     vdW  Elec       q    Type
REMARK                         _______ _______ _______ _____ _____    ______ ____
ROOT
ATOM      1  C   UNL     1      52.107  18.692  15.766  0.00  0.00    +0.228 C 
ATOM      2  N   UNL     1      51.635  19.185  17.068  0.00  0.00    -0.487 N 
ATOM      3  C   UNL     1      51.382  20.630  17.023  0.00  0.00    +0.203 C 
ATOM      4  C   UNL     1      51.024  21.141  18.422  0.00  0.00    +0.114 C 
ATOM      5  C   UNL     1      49.813  20.390  18.915  0.00  0.00    -0.051 A 
ATOM      6  C   UNL     1      48.947  20.955  19.802  0.00  0.00    +0.047 A 
ATOM      7  C   UNL     1      47.828  20.256  20.251  0.00  0.00    +0.049 A 
ATOM      8  C   UNL     1      47.569  18.973  19.791  0.00  0.00    +0.035 A 
ATOM      9  O   UNL     1      46.421  18.520  20.373  0.00  0.00    -0.302 OA
ATOM     10  C   UNL     1      45.757  19.694  20.875  0.00  0.00    +0.434 C 
ATOM     11  C   UNL     1      48.449  18.377  18.882  0.00  0.00    +0.013 A 
ATOM     12  C   UNL     1      48.229  17.022  18.367  0.00  0.00    -0.051 A 
ATOM     13  C   UNL     1      47.123  16.271  18.774  0.00  0.00    +0.071 A 
ATOM     14  C   UNL     1      46.933  14.999  18.276  0.00  0.00    +0.028 A 
ATOM     15  C   UNL     1      47.845  14.454  17.362  0.00  0.00    +0.052 A 
ATOM     16  O   UNL     1      47.426  13.196  17.032  0.00  0.00    -0.307 OA
ATOM     17  C   UNL     1      46.043  13.134  17.428  0.00  0.00    +0.432 C 
ATOM     18  C   UNL     1      48.940  15.180  16.951  0.00  0.00    +0.038 A 
ATOM     19  O   UNL     1      45.952  14.079  18.511  0.00  0.00    -0.306 OA
ATOM     20  C   UNL     1      49.153  16.476  17.447  0.00  0.00    +0.004 A 
ATOM     21  C   UNL     1      50.279  17.222  17.030  0.00  0.00    -0.034 A 
ATOM     22  O   UNL     1      46.836  20.617  21.118  0.00  0.00    -0.305 OA
ATOM     23  C   UNL     1      49.583  19.092  18.441  0.00  0.00    -0.052 A 
ATOM     24  C   UNL     1      50.510  18.477  17.492  0.00  0.00    +0.145 A 
ENDROOT
TORSDOF 0
ENDMDL
MODEL 4
REMARK VINA RESULT:      -6.0      2.885      6.043
REMARK  Name = ZINC14613040
REMARK  1 active torsions:
REMARK  status: ('A' for Active; 'I' for Inactive)
REMARK    1  A    between atoms: C1_1  and  N1_2
REMARK                            x       y       z     vdW  Elec       q    Type
REMARK                         _______ _______ _______ _____ _____    ______ ____
ROOT
ATOM      1  C   UNL     1      44.105  18.543  19.878  0.00  0.00    +0.228 C 
ATOM      2  N   UNL     1      45.226  19.337  19.356  0.00  0.00    -0.487 N 
ATOM      3  C   UNL     1      45.753  20.243  20.384  0.00  0.00    +0.203 C 
ATOM      4  C   UNL     1      46.826  21.152  19.778  0.00  0.00    +0.114 C 
ATOM      5  C   UNL     1      47.919  20.290  19.198  0.00  0.00    -0.051 A 
ATOM      6  C   UNL     1      49.201  20.743  19.112  0.00  0.00    +0.047 A 
ATOM      7  C   UNL     1      50.207  19.938  18.578  0.00  0.00    +0.049 A 
ATOM      8  C   UNL     1      49.920  18.655  18.135  0.00  0.00    +0.035 A 
ATOM      9  O   UNL     1      51.069  18.083  17.671  0.00  0.00    -0.302 OA
ATOM     10  C   UNL     1      52.140  18.876  18.215  0.00  0.00    +0.434 C 
ATOM     11  C   UNL     1      48.609  18.176  18.215  0.00  0.00    +0.013 A 
ATOM     12  C   UNL     1      48.248  16.830  17.758  0.00  0.00    -0.051 A 
ATOM     13  C   UNL     1      49.210  15.974  17.217  0.00  0.00    +0.071 A 
ATOM     14  C   UNL     1      48.850  14.712  16.795  0.00  0.00    +0.028 A 
ATOM     15  C   UNL     1      47.520  14.282  16.904  0.00  0.00    +0.052 A 
ATOM     16  O   UNL     1      47.438  13.007  16.418  0.00  0.00    -0.307 OA
ATOM     17  C   UNL     1      48.790  12.515  16.396  0.00  0.00    +0.432 C 
ATOM     18  C   UNL     1      46.559  15.114  17.433  0.00  0.00    +0.038 A 
ATOM     19  O   UNL     1      49.587  13.704  16.242  0.00  0.00    -0.306 OA
ATOM     20  C   UNL     1      46.905  16.403  17.867  0.00  0.00    +0.004 A 
ATOM     21  C   UNL     1      45.919  17.260  18.407  0.00  0.00    -0.034 A 
ATOM     22  O   UNL     1      51.541  20.173  18.400  0.00  0.00    -0.305 OA
ATOM     23  C   UNL     1      47.598  19.002  18.750  0.00  0.00    -0.052 A 
ATOM     24  C   UNL     1      46.223  18.511  18.836  0.00  0.00    +0.145 A 
ENDROOT
TORSDOF 0
ENDMDL
MODEL 5
REMARK VINA RESULT:      -6.0      3.234      5.277
REMARK  Name = ZINC14613040
REMARK  1 active torsions:
REMARK  status: ('A' for Active; 'I' for Inactive)
REMARK    1  A    between atoms: C1_1  and  N1_2
REMARK                            x       y       z     vdW  Elec       q    Type
REMARK                         _______ _______ _______ _____ _____    ______ ____
ROOT
ATOM      1  C   UNL     1      45.861  19.229  21.627  0.00  0.00    +0.228 C 
ATOM      2  N   UNL     1      45.988  17.801  21.302  0.00  0.00    -0.487 N 
ATOM      3  C   UNL     1      44.676  17.209  21.013  0.00  0.00    +0.203 C 
ATOM      4  C   UNL     1      44.819  15.697  20.813  0.00  0.00    +0.114 C 
ATOM      5  C   UNL     1      45.790  15.448  19.686  0.00  0.00    -0.051 A 
ATOM      6  C   UNL     1      45.706  14.325  18.920  0.00  0.00    +0.047 A 
ATOM      7  C   UNL     1      46.605  14.105  17.877  0.00  0.00    +0.049 A 
ATOM      8  C   UNL     1      47.596  15.034  17.594  0.00  0.00    +0.035 A 
ATOM      9  O   UNL     1      48.329  14.586  16.534  0.00  0.00    -0.302 OA
ATOM     10  C   UNL     1      47.519  13.574  15.908  0.00  0.00    +0.434 C 
ATOM     11  C   UNL     1      47.697  16.191  18.373  0.00  0.00    +0.013 A 
ATOM     12  C   UNL     1      48.727  17.204  18.123  0.00  0.00    -0.051 A 
ATOM     13  C   UNL     1      49.655  17.045  17.091  0.00  0.00    +0.071 A 
ATOM     14  C   UNL     1      50.614  18.010  16.872  0.00  0.00    +0.028 A 
ATOM     15  C   UNL     1      50.665  19.154  17.680  0.00  0.00    +0.052 A 
ATOM     16  O   UNL     1      51.699  19.939  17.253  0.00  0.00    -0.307 OA
ATOM     17  C   UNL     1      52.016  19.472  15.929  0.00  0.00    +0.432 C 
ATOM     18  C   UNL     1      49.759  19.326  18.702  0.00  0.00    +0.038 A 
ATOM     19  O   UNL     1      51.616  18.089  15.946  0.00  0.00    -0.306 OA
ATOM     20  C   UNL     1      48.776  18.354  18.943  0.00  0.00    +0.004 A 
ATOM     21  C   UNL     1      47.847  18.528  19.995  0.00  0.00    -0.034 A 
ATOM     22  O   UNL     1      46.708  13.073  16.987  0.00  0.00    -0.305 OA
ATOM     23  C   UNL     1      46.786  16.400  19.430  0.00  0.00    -0.052 A 
ATOM     24  C   UNL     1      46.885  17.606  20.252  0.00  0.00    +0.145 A 
ENDROOT
TORSDOF 0
ENDMDL
MODEL 6
REMARK VINA RESULT:      -5.9      2.411      4.075
REMARK  Name = ZINC14613040
REMARK  1 active torsions:
REMARK  status: ('A' for Active; 'I' for Inactive)
REMARK    1  A    between atoms: C1_1  and  N1_2
REMARK                            x       y       z     vdW  Elec       q    Type
REMARK                         _______ _______ _______ _____ _____    ______ ____
ROOT
ATOM      1  C   UNL     1      46.583  14.421  17.371  0.00  0.00    +0.228 C 
ATOM      2  N   UNL     1      47.844  15.006  17.847  0.00  0.00    -0.487 N 
ATOM      3  C   UNL     1      48.926  14.780  16.880  0.00  0.00    +0.203 C 
ATOM      4  C   UNL     1      50.255  15.277  17.459  0.00  0.00    +0.114 C 
ATOM      5  C   UNL     1      50.118  16.741  17.794  0.00  0.00    -0.051 A 
ATOM      6  C   UNL     1      51.200  17.570  17.779  0.00  0.00    +0.047 A 
ATOM      7  C   UNL     1      51.065  18.923  18.086  0.00  0.00    +0.049 A 
ATOM      8  C   UNL     1      49.822  19.453  18.401  0.00  0.00    +0.035 A 
ATOM      9  O   UNL     1      49.963  20.786  18.650  0.00  0.00    -0.302 OA
ATOM     10  C   UNL     1      51.233  21.152  18.081  0.00  0.00    +0.434 C 
ATOM     11  C   UNL     1      48.702  18.615  18.422  0.00  0.00    +0.013 A 
ATOM     12  C   UNL     1      47.366  19.119  18.753  0.00  0.00    -0.051 A 
ATOM     13  C   UNL     1      47.163  20.465  19.065  0.00  0.00    +0.071 A 
ATOM     14  C   UNL     1      45.898  20.919  19.372  0.00  0.00    +0.028 A 
ATOM     15  C   UNL     1      44.810  20.035  19.372  0.00  0.00    +0.052 A 
ATOM     16  O   UNL     1      43.685  20.736  19.706  0.00  0.00    -0.307 OA
ATOM     17  C   UNL     1      44.020  22.121  19.505  0.00  0.00    +0.432 C 
ATOM     18  C   UNL     1      44.992  18.705  19.068  0.00  0.00    +0.038 A 
ATOM     19  O   UNL     1      45.445  22.164  19.705  0.00  0.00    -0.306 OA
ATOM     20  C   UNL     1      46.272  18.223  18.755  0.00  0.00    +0.004 A 
ATOM     21  C   UNL     1      46.462  16.856  18.446  0.00  0.00    -0.034 A 
ATOM     22  O   UNL     1      51.990  19.927  18.129  0.00  0.00    -0.305 OA
ATOM     23  C   UNL     1      48.852  17.246  18.117  0.00  0.00    -0.052 A 
ATOM     24  C   UNL     1      47.688  16.361  18.139  0.00  0.00    +0.145 A 
ENDROOT
TORSDOF 0
ENDMDL
MODEL 7
REMARK VINA RESULT:      -5.6      2.524      4.335
REMARK  Name = ZINC14613040
REMARK  1 active torsions:
REMARK  status: ('A' for Active; 'I' for Inactive)
REMARK    1  A    between atoms: C1_1  and  N1_2
REMARK                            x       y       z     vdW  Elec       q    Type
REMARK                         _______ _______ _______ _____ _____    ______ ____
ROOT
ATOM      1  C   UNL     1      47.506  13.262  16.710  0.00  0.00    +0.228 C 
ATOM      2  N   UNL     1      48.727  13.951  17.152  0.00  0.00    -0.487 N 
ATOM      3  C   UNL     1      49.786  13.846  16.141  0.00  0.00    +0.203 C 
ATOM      4  C   UNL     1      51.085  14.452  16.681  0.00  0.00    +0.114 C 
ATOM      5  C   UNL     1      50.829  15.890  17.056  0.00  0.00    -0.051 A 
ATOM      6  C   UNL     1      51.828  16.815  17.021  0.00  0.00    +0.047 A 
ATOM      7  C   UNL     1      51.582  18.143  17.365  0.00  0.00    +0.049 A 
ATOM      8  C   UNL     1      50.309  18.549  17.739  0.00  0.00    +0.035 A 
ATOM      9  O   UNL     1      50.337  19.885  18.015  0.00  0.00    -0.302 OA
ATOM     10  C   UNL     1      51.546  20.377  17.408  0.00  0.00    +0.434 C 
ATOM     11  C   UNL     1      49.273  17.611  17.782  0.00  0.00    +0.013 A 
ATOM     12  C   UNL     1      47.910  17.982  18.175  0.00  0.00    -0.051 A 
ATOM     13  C   UNL     1      47.598  19.298  18.527  0.00  0.00    +0.071 A 
ATOM     14  C   UNL     1      46.309  19.626  18.891  0.00  0.00    +0.028 A 
ATOM     15  C   UNL     1      45.308  18.646  18.911  0.00  0.00    +0.052 A 
ATOM     16  O   UNL     1      44.137  19.232  19.304  0.00  0.00    -0.307 OA
ATOM     17  C   UNL     1      44.336  20.647  19.124  0.00  0.00    +0.432 C 
ATOM     18  C   UNL     1      45.599  17.345  18.568  0.00  0.00    +0.038 A 
ATOM     19  O   UNL     1      45.758  20.816  19.271  0.00  0.00    -0.306 OA
ATOM     20  C   UNL     1      46.904  16.989  18.196  0.00  0.00    +0.004 A 
ATOM     21  C   UNL     1      47.206  15.653  17.847  0.00  0.00    -0.034 A 
ATOM     22  O   UNL     1      52.412  19.228  17.397  0.00  0.00    -0.305 OA
ATOM     23  C   UNL     1      49.535  16.268  17.439  0.00  0.00    -0.052 A 
ATOM     24  C   UNL     1      48.459  15.279  17.483  0.00  0.00    +0.145 A 
ENDROOT
TORSDOF 0
ENDMDL
MODEL 8
REMARK VINA RESULT:      -5.6      3.724      6.064
REMARK  Name = ZINC14613040
REMARK  1 active torsions:
REMARK  status: ('A' for Active; 'I' for Inactive)
REMARK    1  A    between atoms: C1_1  and  N1_2
REMARK                            x       y       z     vdW  Elec       q    Type
REMARK                         _______ _______ _______ _____ _____    ______ ____
ROOT
ATOM      1  C   UNL     1      42.909  21.146  19.499  0.00  0.00    +0.228 C 
ATOM      2  N   UNL     1      43.181  20.150  20.545  0.00  0.00    -0.487 N 
ATOM      3  C   UNL     1      42.203  19.057  20.499  0.00  0.00    +0.203 C 
ATOM      4  C   UNL     1      42.425  18.107  21.680  0.00  0.00    +0.114 C 
ATOM      5  C   UNL     1      43.836  17.579  21.617  0.00  0.00    -0.051 A 
ATOM      6  C   UNL     1      44.155  16.360  22.134  0.00  0.00    +0.047 A 
ATOM      7  C   UNL     1      45.461  15.877  22.068  0.00  0.00    +0.049 A 
ATOM      8  C   UNL     1      46.459  16.628  21.463  0.00  0.00    +0.035 A 
ATOM      9  O   UNL     1      47.631  15.932  21.525  0.00  0.00    -0.302 OA
ATOM     10  C   UNL     1      47.255  14.571  21.805  0.00  0.00    +0.434 C 
ATOM     11  C   UNL     1      46.148  17.882  20.929  0.00  0.00    +0.013 A 
ATOM     12  C   UNL     1      47.163  18.720  20.283  0.00  0.00    -0.051 A 
ATOM     13  C   UNL     1      48.489  18.292  20.181  0.00  0.00    +0.071 A 
ATOM     14  C   UNL     1      49.427  19.095  19.568  0.00  0.00    +0.028 A 
ATOM     15  C   UNL     1      49.058  20.342  19.045  0.00  0.00    +0.052 A 
ATOM     16  O   UNL     1      50.167  20.926  18.499  0.00  0.00    -0.307 OA
ATOM     17  C   UNL     1      51.118  19.859  18.324  0.00  0.00    +0.432 C 
ATOM     18  C   UNL     1      47.757  20.779  19.138  0.00  0.00    +0.038 A 
ATOM     19  O   UNL     1      50.762  18.909  19.345  0.00  0.00    -0.306 OA
ATOM     20  C   UNL     1      46.787  19.978  19.760  0.00  0.00    +0.004 A 
ATOM     21  C   UNL     1      45.450  20.428  19.859  0.00  0.00    -0.034 A 
ATOM     22  O   UNL     1      46.004  14.702  22.505  0.00  0.00    -0.305 OA
ATOM     23  C   UNL     1      44.825  18.364  21.008  0.00  0.00    -0.052 A 
ATOM     24  C   UNL     1      44.490  19.675  20.455  0.00  0.00    +0.145 A 
ENDROOT
TORSDOF 0
ENDMDL
MODEL 9
REMARK VINA RESULT:      -5.4      1.872      5.320
REMARK  Name = ZINC14613040
REMARK  1 active torsions:
REMARK  status: ('A' for Active; 'I' for Inactive)
REMARK    1  A    between atoms: C1_1  and  N1_2
REMARK                            x       y       z     vdW  Elec       q    Type
REMARK                         _______ _______ _______ _____ _____    ______ ____
ROOT
ATOM      1  C   UNL     1      51.092  18.866  17.814  0.00  0.00    +0.228 C 
ATOM      2  N   UNL     1      50.145  19.209  18.884  0.00  0.00    -0.487 N 
ATOM      3  C   UNL     1      49.697  20.602  18.763  0.00  0.00    +0.203 C 
ATOM      4  C   UNL     1      48.822  20.974  19.964  0.00  0.00    +0.114 C 
ATOM      5  C   UNL     1      47.650  20.027  20.021  0.00  0.00    -0.051 A 
ATOM      6  C   UNL     1      46.463  20.408  20.570  0.00  0.00    +0.047 A 
ATOM      7  C   UNL     1      45.384  19.527  20.615  0.00  0.00    +0.049 A 
ATOM      8  C   UNL     1      45.496  18.248  20.090  0.00  0.00    +0.035 A 
ATOM      9  O   UNL     1      44.307  17.599  20.253  0.00  0.00    -0.302 OA
ATOM     10  C   UNL     1      43.338  18.632  20.509  0.00  0.00    +0.434 C 
ATOM     11  C   UNL     1      46.709  17.840  19.525  0.00  0.00    +0.013 A 
ATOM     12  C   UNL     1      46.887  16.499  18.961  0.00  0.00    -0.051 A 
ATOM     13  C   UNL     1      45.843  15.572  18.971  0.00  0.00    +0.071 A 
ATOM     14  C   UNL     1      46.030  14.316  18.433  0.00  0.00    +0.028 A 
ATOM     15  C   UNL     1      47.266  13.964  17.874  0.00  0.00    +0.052 A 
ATOM     16  O   UNL     1      47.183  12.678  17.419  0.00  0.00    -0.307 OA
ATOM     17  C   UNL     1      45.775  12.391  17.329  0.00  0.00    +0.432 C 
ATOM     18  C   UNL     1      48.307  14.865  17.857  0.00  0.00    +0.038 A 
ATOM     19  O   UNL     1      45.185  13.249  18.323  0.00  0.00    -0.306 OA
ATOM     20  C   UNL     1      48.137  16.147  18.401  0.00  0.00    +0.004 A 
ATOM     21  C   UNL     1      49.205  17.073  18.387  0.00  0.00    -0.034 A 
ATOM     22  O   UNL     1      44.117  19.688  21.102  0.00  0.00    -0.305 OA
ATOM     23  C   UNL     1      47.797  18.738  19.492  0.00  0.00    -0.052 A 
ATOM     24  C   UNL     1      49.070  18.320  18.905  0.00  0.00    +0.145 A 
ENDROOT
TORSDOF 0
ENDMDL
