MODEL 1
REMARK VINA RESULT:      -6.4      0.000      0.000
REMARK  Name = ZINC95485967
REMARK  12 active torsions:
REMARK  status: ('A' for Active; 'I' for Inactive)
REMARK    1  A    between atoms: C1_1  and  C2_2
REMARK    2  A    between atoms: C4_4  and  O4_32
REMARK    3  A    between atoms: C7_7  and  C8_8
REMARK    4  A    between atoms: C8_8  and  C9_9
REMARK    5  A    between atoms: C9_9  and  C10_10
REMARK    6  A    between atoms: C11_11  and  C12_12
REMARK    7  A    between atoms: C11_11  and  C13_13
REMARK    8  A    between atoms: C21_23  and  C22_25
REMARK    9  A    between atoms: C22_25  and  C23_26
REMARK   10  A    between atoms: C23_26  and  C24_27
REMARK   11  A    between atoms: C25_28  and  C26_29
REMARK   12  A    between atoms: C25_28  and  C27_30
REMARK                            x       y       z     vdW  Elec       q    Type
REMARK                         _______ _______ _______ _____ _____    ______ ____
ROOT
ATOM      1  C   UNL     1      42.615  19.634  20.313  0.00  0.00    +0.076 C 
ATOM      2  C   UNL     1      43.617  18.510  20.372  0.00  0.00    -0.048 A 
ATOM      3  C   UNL     1      43.497  17.538  21.361  0.00  0.00    -0.101 A 
ATOM      4  C   UNL     1      44.398  16.498  21.437  0.00  0.00    +0.180 A 
ATOM      7  C   UNL     1      45.449  16.422  20.502  0.00  0.00    -0.179 A 
ATOM      8  C   UNL     1      45.566  17.420  19.502  0.00  0.00    +0.055 A 
ATOM      9  C   UNL     1      46.620  17.354  18.571  0.00  0.00    -0.160 A 
ATOM     10  C   UNL     1      47.528  16.342  18.618  0.00  0.00    +0.051 A 
ATOM     11  C   UNL     1      48.648  16.351  17.608  0.00  0.00    +0.004 C 
ATOM     18  C   UNL     1      49.307  14.996  17.545  0.00  0.00    +0.386 C 
ATOM     19  O   UNL     1      49.551  14.469  16.485  0.00  0.00    -0.461 OA
ATOM     20  C   UNL     1      49.652  14.316  18.856  0.00  0.00    +0.004 C 
ATOM     21  C   UNL     1      48.362  14.211  19.641  0.00  0.00    +0.406 C 
ATOM     22  O   UNL     1      48.114  13.219  20.294  0.00  0.00    -0.456 OA
ATOM     23  C   UNL     1      47.418  15.333  19.594  0.00  0.00    -0.381 A 
ATOM     24  C   UNL     1      46.386  15.374  20.542  0.00  0.00    +0.343 A 
ATOM     25  O   UNL     1      46.291  14.412  21.487  0.00  0.00    -0.615 OA
ATOM     26  C   UNL     1      44.623  18.458  19.454  0.00  0.00    -0.133 A 
ENDROOT
BRANCH   4   5
ATOM      5  O   UNL     1      44.274  15.554  22.405  0.00  0.00    -0.478 OA
ATOM      6  H   UNL     1      45.009  15.534  23.032  0.00  0.00    +0.385 HD
ENDBRANCH   4   5
BRANCH  11  12
ATOM     12  C   UNL     1      49.686  17.400  18.013  0.00  0.00    +0.061 C 
BRANCH  12  13
ATOM     13  C   UNL     1      50.866  17.352  17.040  0.00  0.00    +0.042 C 
BRANCH  13  14
ATOM     14  C   UNL     1      50.989  18.677  16.333  0.00  0.00    -0.046 C 
ATOM     15  C   UNL     1      51.729  19.627  16.845  0.00  0.00    -0.142 C 
ATOM     16  C   UNL     1      51.692  21.014  16.254  0.00  0.00    +0.069 C 
ATOM     17  C   UNL     1      52.620  19.335  18.025  0.00  0.00    +0.069 C 
ENDBRANCH  13  14
ENDBRANCH  12  13
ENDBRANCH  11  12
BRANCH  26  27
ATOM     27  C   UNL     1      44.726  19.520  18.390  0.00  0.00    +0.071 C 
BRANCH  27  28
ATOM     28  C   UNL     1      45.287  20.805  19.004  0.00  0.00    +0.055 C 
BRANCH  28  29
ATOM     29  C   UNL     1      46.748  20.932  18.654  0.00  0.00    -0.046 C 
ATOM     30  C   UNL     1      47.661  20.748  19.577  0.00  0.00    -0.147 C 
ATOM     31  C   UNL     1      49.120  20.739  19.201  0.00  0.00    +0.066 C 
ATOM     32  C   UNL     1      47.250  20.545  21.012  0.00  0.00    +0.069 C 
ENDBRANCH  28  29
ENDBRANCH  27  28
ENDBRANCH  26  27
TORSDOF 7
ENDMDL
MODEL 2
REMARK VINA RESULT:      -6.4      3.374      7.681
REMARK  Name = ZINC95485967
REMARK  12 active torsions:
REMARK  status: ('A' for Active; 'I' for Inactive)
REMARK    1  A    between atoms: C1_1  and  C2_2
REMARK    2  A    between atoms: C4_4  and  O4_32
REMARK    3  A    between atoms: C7_7  and  C8_8
REMARK    4  A    between atoms: C8_8  and  C9_9
REMARK    5  A    between atoms: C9_9  and  C10_10
REMARK    6  A    between atoms: C11_11  and  C12_12
REMARK    7  A    between atoms: C11_11  and  C13_13
REMARK    8  A    between atoms: C21_23  and  C22_25
REMARK    9  A    between atoms: C22_25  and  C23_26
REMARK   10  A    between atoms: C23_26  and  C24_27
REMARK   11  A    between atoms: C25_28  and  C26_29
REMARK   12  A    between atoms: C25_28  and  C27_30
REMARK                            x       y       z     vdW  Elec       q    Type
REMARK                         _______ _______ _______ _____ _____    ______ ____
ROOT
ATOM      1  C   UNL     1      49.901  16.400  17.721  0.00  0.00    +0.076 C 
ATOM      2  C   UNL     1      49.463  17.576  18.556  0.00  0.00    -0.048 A 
ATOM      3  C   UNL     1      50.293  18.041  19.571  0.00  0.00    -0.101 A 
ATOM      4  C   UNL     1      49.917  19.115  20.349  0.00  0.00    +0.180 A 
ATOM      7  C   UNL     1      48.681  19.747  20.107  0.00  0.00    -0.179 A 
ATOM      8  C   UNL     1      47.841  19.263  19.073  0.00  0.00    +0.055 A 
ATOM      9  C   UNL     1      46.601  19.884  18.834  0.00  0.00    -0.160 A 
ATOM     10  C   UNL     1      46.199  20.946  19.583  0.00  0.00    +0.051 A 
ATOM     11  C   UNL     1      44.845  21.544  19.291  0.00  0.00    +0.004 C 
ATOM     18  C   UNL     1      44.731  22.912  19.915  0.00  0.00    +0.386 C 
ATOM     19  O   UNL     1      44.289  23.848  19.292  0.00  0.00    -0.461 OA
ATOM     20  C   UNL     1      45.190  23.074  21.352  0.00  0.00    +0.004 C 
ATOM     21  C   UNL     1      46.633  22.620  21.398  0.00  0.00    +0.406 C 
ATOM     22  O   UNL     1      47.446  23.210  22.078  0.00  0.00    -0.456 OA
ATOM     23  C   UNL     1      47.028  21.451  20.603  0.00  0.00    -0.381 A 
ATOM     24  C   UNL     1      48.265  20.850  20.873  0.00  0.00    +0.343 A 
ATOM     25  O   UNL     1      49.052  21.327  21.863  0.00  0.00    -0.615 OA
ATOM     26  C   UNL     1      48.264  18.171  18.300  0.00  0.00    -0.133 A 
ENDROOT
BRANCH   4   5
ATOM      5  O   UNL     1      50.733  19.562  21.338  0.00  0.00    -0.478 OA
ATOM      6  H   UNL     1      50.523  20.453  21.648  0.00  0.00    +0.385 HD
ENDBRANCH   4   5
BRANCH  11  12
ATOM     12  C   UNL     1      43.756  20.634  19.864  0.00  0.00    +0.061 C 
BRANCH  12  13
ATOM     13  C   UNL     1      42.746  20.293  18.765  0.00  0.00    +0.042 C 
BRANCH  13  14
ATOM     14  C   UNL     1      41.469  21.056  19.003  0.00  0.00    -0.046 C 
ATOM     15  C   UNL     1      40.364  20.685  18.408  0.00  0.00    -0.142 C 
ATOM     16  C   UNL     1      39.138  21.559  18.479  0.00  0.00    +0.069 C 
ATOM     17  C   UNL     1      40.316  19.381  17.653  0.00  0.00    +0.069 C 
ENDBRANCH  13  14
ENDBRANCH  12  13
ENDBRANCH  11  12
BRANCH  26  27
ATOM     27  C   UNL     1      47.388  17.651  17.189  0.00  0.00    +0.071 C 
BRANCH  27  28
ATOM     28  C   UNL     1      46.022  17.259  17.758  0.00  0.00    +0.055 C 
BRANCH  28  29
ATOM     29  C   UNL     1      46.152  15.973  18.534  0.00  0.00    -0.046 C 
ATOM     30  C   UNL     1      45.519  15.828  19.672  0.00  0.00    -0.147 C 
ATOM     31  C   UNL     1      45.537  14.499  20.379  0.00  0.00    +0.066 C 
ATOM     32  C   UNL     1      44.772  16.992  20.272  0.00  0.00    +0.069 C 
ENDBRANCH  28  29
ENDBRANCH  27  28
ENDBRANCH  26  27
TORSDOF 7
ENDMDL
MODEL 3
REMARK VINA RESULT:      -6.2      1.518      5.893
REMARK  Name = ZINC95485967
REMARK  12 active torsions:
REMARK  status: ('A' for Active; 'I' for Inactive)
REMARK    1  A    between atoms: C1_1  and  C2_2
REMARK    2  A    between atoms: C4_4  and  O4_32
REMARK    3  A    between atoms: C7_7  and  C8_8
REMARK    4  A    between atoms: C8_8  and  C9_9
REMARK    5  A    between atoms: C9_9  and  C10_10
REMARK    6  A    between atoms: C11_11  and  C12_12
REMARK    7  A    between atoms: C11_11  and  C13_13
REMARK    8  A    between atoms: C21_23  and  C22_25
REMARK    9  A    between atoms: C22_25  and  C23_26
REMARK   10  A    between atoms: C23_26  and  C24_27
REMARK   11  A    between atoms: C25_28  and  C26_29
REMARK   12  A    between atoms: C25_28  and  C27_30
REMARK                            x       y       z     vdW  Elec       q    Type
REMARK                         _______ _______ _______ _____ _____    ______ ____
ROOT
ATOM      1  C   UNL     1      51.144  21.222  18.195  0.00  0.00    +0.076 C 
ATOM      2  C   UNL     1      50.894  19.755  17.958  0.00  0.00    -0.048 A 
ATOM      3  C   UNL     1      51.659  19.075  17.015  0.00  0.00    -0.101 A 
ATOM      4  C   UNL     1      51.452  17.732  16.779  0.00  0.00    +0.180 A 
ATOM      7  C   UNL     1      50.456  17.047  17.503  0.00  0.00    -0.179 A 
ATOM      8  C   UNL     1      49.679  17.751  18.457  0.00  0.00    +0.055 A 
ATOM      9  C   UNL     1      48.676  17.072  19.175  0.00  0.00    -0.160 A 
ATOM     10  C   UNL     1      48.444  15.748  18.966  0.00  0.00    +0.051 A 
ATOM     11  C   UNL     1      47.334  15.093  19.750  0.00  0.00    +0.004 C 
ATOM     18  C   UNL     1      47.472  13.592  19.698  0.00  0.00    +0.386 C 
ATOM     19  O   UNL     1      47.366  12.921  20.697  0.00  0.00    -0.461 OA
ATOM     20  C   UNL     1      47.747  12.954  18.350  0.00  0.00    +0.004 C 
ATOM     21  C   UNL     1      49.013  13.593  17.820  0.00  0.00    +0.406 C 
ATOM     22  O   UNL     1      49.841  12.930  17.231  0.00  0.00    -0.456 OA
ATOM     23  C   UNL     1      49.218  15.030  18.034  0.00  0.00    -0.381 A 
ATOM     24  C   UNL     1      50.218  15.677  17.296  0.00  0.00    +0.343 A 
ATOM     25  O   UNL     1      50.950  14.988  16.391  0.00  0.00    -0.615 OA
ATOM     26  C   UNL     1      49.926  19.115  18.673  0.00  0.00    -0.133 A 
ENDROOT
BRANCH   4   5
ATOM      5  O   UNL     1      52.203  17.076  15.857  0.00  0.00    -0.478 OA
ATOM      6  H   UNL     1      52.465  16.185  16.126  0.00  0.00    +0.385 HD
ENDBRANCH   4   5
BRANCH  11  12
ATOM     12  C   UNL     1      45.986  15.499  19.152  0.00  0.00    +0.061 C 
BRANCH  12  13
ATOM     13  C   UNL     1      45.041  15.937  20.274  0.00  0.00    +0.042 C 
BRANCH  13  14
ATOM     14  C   UNL     1      45.701  17.013  21.095  0.00  0.00    -0.046 C 
ATOM     15  C   UNL     1      44.971  17.913  21.705  0.00  0.00    -0.142 C 
ATOM     16  C   UNL     1      45.628  19.104  22.355  0.00  0.00    +0.069 C 
ATOM     17  C   UNL     1      43.473  17.757  21.759  0.00  0.00    +0.069 C 
ENDBRANCH  13  14
ENDBRANCH  12  13
ENDBRANCH  11  12
BRANCH  26  27
ATOM     27  C   UNL     1      49.117  19.874  19.692  0.00  0.00    +0.071 C 
BRANCH  27  28
ATOM     28  C   UNL     1      48.028  20.681  18.980  0.00  0.00    +0.055 C 
BRANCH  28  29
ATOM     29  C   UNL     1      46.805  19.818  18.794  0.00  0.00    -0.046 C 
ATOM     30  C   UNL     1      45.612  20.359  18.824  0.00  0.00    -0.147 C 
ATOM     31  C   UNL     1      44.400  19.525  18.503  0.00  0.00    +0.066 C 
ATOM     32  C   UNL     1      45.454  21.815  19.180  0.00  0.00    +0.069 C 
ENDBRANCH  28  29
ENDBRANCH  27  28
ENDBRANCH  26  27
TORSDOF 7
ENDMDL
MODEL 4
REMARK VINA RESULT:      -6.1      1.853      3.594
REMARK  Name = ZINC95485967
REMARK  12 active torsions:
REMARK  status: ('A' for Active; 'I' for Inactive)
REMARK    1  A    between atoms: C1_1  and  C2_2
REMARK    2  A    between atoms: C4_4  and  O4_32
REMARK    3  A    between atoms: C7_7  and  C8_8
REMARK    4  A    between atoms: C8_8  and  C9_9
REMARK    5  A    between atoms: C9_9  and  C10_10
REMARK    6  A    between atoms: C11_11  and  C12_12
REMARK    7  A    between atoms: C11_11  and  C13_13
REMARK    8  A    between atoms: C21_23  and  C22_25
REMARK    9  A    between atoms: C22_25  and  C23_26
REMARK   10  A    between atoms: C23_26  and  C24_27
REMARK   11  A    between atoms: C25_28  and  C26_29
REMARK   12  A    between atoms: C25_28  and  C27_30
REMARK                            x       y       z     vdW  Elec       q    Type
REMARK                         _______ _______ _______ _____ _____    ______ ____
ROOT
ATOM      1  C   UNL     1      41.319  19.149  21.794  0.00  0.00    +0.076 C 
ATOM      2  C   UNL     1      42.628  18.440  21.561  0.00  0.00    -0.048 A 
ATOM      3  C   UNL     1      42.838  17.188  22.129  0.00  0.00    -0.101 A 
ATOM      4  C   UNL     1      44.026  16.516  21.931  0.00  0.00    +0.180 A 
ATOM      7  C   UNL     1      45.033  17.108  21.143  0.00  0.00    -0.179 A 
ATOM      8  C   UNL     1      44.811  18.387  20.573  0.00  0.00    +0.055 A 
ATOM      9  C   UNL     1      45.818  18.987  19.794  0.00  0.00    -0.160 A 
ATOM     10  C   UNL     1      47.003  18.353  19.579  0.00  0.00    +0.051 A 
ATOM     11  C   UNL     1      48.047  19.068  18.758  0.00  0.00    +0.004 C 
ATOM     18  C   UNL     1      49.103  18.096  18.295  0.00  0.00    +0.386 C 
ATOM     19  O   UNL     1      49.489  18.093  17.149  0.00  0.00    -0.461 OA
ATOM     20  C   UNL     1      49.665  17.124  19.313  0.00  0.00    +0.004 C 
ATOM     21  C   UNL     1      48.487  16.355  19.873  0.00  0.00    +0.406 C 
ATOM     22  O   UNL     1      48.579  15.169  20.108  0.00  0.00    -0.456 OA
ATOM     23  C   UNL     1      47.233  17.075  20.123  0.00  0.00    -0.381 A 
ATOM     24  C   UNL     1      46.255  16.454  20.912  0.00  0.00    +0.343 A 
ATOM     25  O   UNL     1      46.486  15.233  21.446  0.00  0.00    -0.615 OA
ATOM     26  C   UNL     1      43.585  19.034  20.794  0.00  0.00    -0.133 A 
ENDROOT
BRANCH   4   5
ATOM      5  O   UNL     1      44.223  15.294  22.489  0.00  0.00    -0.478 OA
ATOM      6  H   UNL     1      44.708  15.317  23.324  0.00  0.00    +0.385 HD
ENDBRANCH   4   5
BRANCH  11  12
ATOM     12  C   UNL     1      48.701  20.158  19.611  0.00  0.00    +0.061 C 
BRANCH  12  13
ATOM     13  C   UNL     1      49.542  21.070  18.714  0.00  0.00    +0.042 C 
BRANCH  13  14
ATOM     14  C   UNL     1      51.002  20.884  19.038  0.00  0.00    -0.046 C 
ATOM     15  C   UNL     1      51.880  20.790  18.072  0.00  0.00    -0.142 C 
ATOM     16  C   UNL     1      53.303  20.401  18.381  0.00  0.00    +0.069 C 
ATOM     17  C   UNL     1      51.469  21.071  16.649  0.00  0.00    +0.069 C 
ENDBRANCH  13  14
ENDBRANCH  12  13
ENDBRANCH  11  12
BRANCH  26  27
ATOM     27  C   UNL     1      43.329  20.388  20.185  0.00  0.00    +0.071 C 
BRANCH  27  28
ATOM     28  C   UNL     1      42.635  20.216  18.831  0.00  0.00    +0.055 C 
BRANCH  28  29
ATOM     29  C   UNL     1      41.434  21.124  18.763  0.00  0.00    -0.046 C 
ATOM     30  C   UNL     1      40.289  20.664  18.322  0.00  0.00    -0.147 C 
ATOM     31  C   UNL     1      39.057  21.528  18.382  0.00  0.00    +0.066 C 
ATOM     32  C   UNL     1      40.206  19.269  17.757  0.00  0.00    +0.069 C 
ENDBRANCH  28  29
ENDBRANCH  27  28
ENDBRANCH  26  27
TORSDOF 7
ENDMDL
MODEL 5
REMARK VINA RESULT:      -6.0      3.000      5.036
REMARK  Name = ZINC95485967
REMARK  12 active torsions:
REMARK  status: ('A' for Active; 'I' for Inactive)
REMARK    1  A    between atoms: C1_1  and  C2_2
REMARK    2  A    between atoms: C4_4  and  O4_32
REMARK    3  A    between atoms: C7_7  and  C8_8
REMARK    4  A    between atoms: C8_8  and  C9_9
REMARK    5  A    between atoms: C9_9  and  C10_10
REMARK    6  A    between atoms: C11_11  and  C12_12
REMARK    7  A    between atoms: C11_11  and  C13_13
REMARK    8  A    between atoms: C21_23  and  C22_25
REMARK    9  A    between atoms: C22_25  and  C23_26
REMARK   10  A    between atoms: C23_26  and  C24_27
REMARK   11  A    between atoms: C25_28  and  C26_29
REMARK   12  A    between atoms: C25_28  and  C27_30
REMARK                            x       y       z     vdW  Elec       q    Type
REMARK                         _______ _______ _______ _____ _____    ______ ____
ROOT
ATOM      1  C   UNL     1      49.149  20.496  19.934  0.00  0.00    +0.076 C 
ATOM      2  C   UNL     1      48.870  19.215  19.190  0.00  0.00    -0.048 A 
ATOM      3  C   UNL     1      47.622  19.020  18.609  0.00  0.00    -0.101 A 
ATOM      4  C   UNL     1      47.341  17.858  17.922  0.00  0.00    +0.180 A 
ATOM      7  C   UNL     1      48.332  16.862  17.809  0.00  0.00    -0.179 A 
ATOM      8  C   UNL     1      49.599  17.070  18.410  0.00  0.00    +0.055 A 
ATOM      9  C   UNL     1      50.589  16.074  18.309  0.00  0.00    -0.160 A 
ATOM     10  C   UNL     1      50.345  14.915  17.640  0.00  0.00    +0.051 A 
ATOM     11  C   UNL     1      51.442  13.880  17.597  0.00  0.00    +0.004 C 
ATOM     18  C   UNL     1      51.163  12.867  16.515  0.00  0.00    +0.386 C 
ATOM     19  O   UNL     1      52.028  12.521  15.746  0.00  0.00    -0.461 OA
ATOM     20  C   UNL     1      49.760  12.296  16.425  0.00  0.00    +0.004 C 
ATOM     21  C   UNL     1      48.824  13.475  16.262  0.00  0.00    +0.406 C 
ATOM     22  O   UNL     1      47.869  13.408  15.517  0.00  0.00    -0.456 OA
ATOM     23  C   UNL     1      49.098  14.700  17.023  0.00  0.00    -0.381 A 
ATOM     24  C   UNL     1      48.087  15.667  17.112  0.00  0.00    +0.343 A 
ATOM     25  O   UNL     1      46.885  15.451  16.531  0.00  0.00    -0.615 OA
ATOM     26  C   UNL     1      49.847  18.269  19.095  0.00  0.00    -0.133 A 
ENDROOT
BRANCH   4   5
ATOM      5  O   UNL     1      46.119  17.675  17.357  0.00  0.00    -0.478 OA
ATOM      6  H   UNL     1      45.429  17.425  17.986  0.00  0.00    +0.385 HD
ENDBRANCH   4   5
BRANCH  11  12
ATOM     12  C   UNL     1      51.519  13.169  18.950  0.00  0.00    +0.061 C 
BRANCH  12  13
ATOM     13  C   UNL     1      52.887  13.427  19.584  0.00  0.00    +0.042 C 
BRANCH  13  14
ATOM     14  C   UNL     1      52.757  14.491  20.643  0.00  0.00    -0.046 C 
ATOM     15  C   UNL     1      53.518  15.555  20.600  0.00  0.00    -0.142 C 
ATOM     16  C   UNL     1      53.536  16.517  21.761  0.00  0.00    +0.069 C 
ATOM     17  C   UNL     1      54.375  15.820  19.389  0.00  0.00    +0.069 C 
ENDBRANCH  13  14
ENDBRANCH  12  13
ENDBRANCH  11  12
BRANCH  26  27
ATOM     27  C   UNL     1      51.193  18.510  19.728  0.00  0.00    +0.071 C 
BRANCH  27  28
ATOM     28  C   UNL     1      52.253  18.650  18.634  0.00  0.00    +0.055 C 
BRANCH  28  29
ATOM     29  C   UNL     1      52.123  20.002  17.979  0.00  0.00    -0.046 C 
ATOM     30  C   UNL     1      51.816  20.088  16.708  0.00  0.00    -0.147 C 
ATOM     31  C   UNL     1      51.551  21.434  16.086  0.00  0.00    +0.066 C 
ATOM     32  C   UNL     1      51.726  18.839  15.870  0.00  0.00    +0.069 C 
ENDBRANCH  28  29
ENDBRANCH  27  28
ENDBRANCH  26  27
TORSDOF 7
ENDMDL
MODEL 6
REMARK VINA RESULT:      -6.0      1.689      2.748
REMARK  Name = ZINC95485967
REMARK  12 active torsions:
REMARK  status: ('A' for Active; 'I' for Inactive)
REMARK    1  A    between atoms: C1_1  and  C2_2
REMARK    2  A    between atoms: C4_4  and  O4_32
REMARK    3  A    between atoms: C7_7  and  C8_8
REMARK    4  A    between atoms: C8_8  and  C9_9
REMARK    5  A    between atoms: C9_9  and  C10_10
REMARK    6  A    between atoms: C11_11  and  C12_12
REMARK    7  A    between atoms: C11_11  and  C13_13
REMARK    8  A    between atoms: C21_23  and  C22_25
REMARK    9  A    between atoms: C22_25  and  C23_26
REMARK   10  A    between atoms: C23_26  and  C24_27
REMARK   11  A    between atoms: C25_28  and  C26_29
REMARK   12  A    between atoms: C25_28  and  C27_30
REMARK                            x       y       z     vdW  Elec       q    Type
REMARK                         _______ _______ _______ _____ _____    ______ ____
ROOT
ATOM      1  C   UNL     1      46.021  22.048  21.120  0.00  0.00    +0.076 C 
ATOM      2  C   UNL     1      45.859  20.564  20.910  0.00  0.00    -0.048 A 
ATOM      3  C   UNL     1      45.084  19.828  21.800  0.00  0.00    -0.101 A 
ATOM      4  C   UNL     1      44.919  18.470  21.630  0.00  0.00    +0.180 A 
ATOM      7  C   UNL     1      45.541  17.826  20.542  0.00  0.00    -0.179 A 
ATOM      8  C   UNL     1      46.333  18.586  19.644  0.00  0.00    +0.055 A 
ATOM      9  C   UNL     1      46.964  17.946  18.561  0.00  0.00    -0.160 A 
ATOM     10  C   UNL     1      46.824  16.607  18.364  0.00  0.00    +0.051 A 
ATOM     11  C   UNL     1      47.553  15.984  17.200  0.00  0.00    +0.004 C 
ATOM     18  C   UNL     1      46.987  14.619  16.898  0.00  0.00    +0.386 C 
ATOM     19  O   UNL     1      46.732  14.286  15.765  0.00  0.00    -0.461 OA
ATOM     20  C   UNL     1      46.749  13.678  18.064  0.00  0.00    +0.004 C 
ATOM     21  C   UNL     1      45.829  14.403  19.023  0.00  0.00    +0.406 C 
ATOM     22  O   UNL     1      44.944  13.806  19.601  0.00  0.00    -0.456 OA
ATOM     23  C   UNL     1      46.027  15.841  19.237  0.00  0.00    -0.381 A 
ATOM     24  C   UNL     1      45.392  16.445  20.330  0.00  0.00    +0.343 A 
ATOM     25  O   UNL     1      44.640  15.704  21.175  0.00  0.00    -0.615 OA
ATOM     26  C   UNL     1      46.470  19.967  19.848  0.00  0.00    -0.133 A 
ENDROOT
BRANCH   4   5
ATOM      5  O   UNL     1      44.161  17.758  22.504  0.00  0.00    -0.478 OA
ATOM      6  H   UNL     1      43.242  17.645  22.226  0.00  0.00    +0.385 HD
ENDBRANCH   4   5
BRANCH  11  12
ATOM     12  C   UNL     1      49.038  15.851  17.547  0.00  0.00    +0.061 C 
BRANCH  12  13
ATOM     13  C   UNL     1      49.753  17.168  17.237  0.00  0.00    +0.042 C 
BRANCH  13  14
ATOM     14  C   UNL     1      51.204  17.055  17.627  0.00  0.00    -0.046 C 
ATOM     15  C   UNL     1      51.579  17.340  18.849  0.00  0.00    -0.142 C 
ATOM     16  C   UNL     1      53.045  17.427  19.188  0.00  0.00    +0.069 C 
ATOM     17  C   UNL     1      50.543  17.579  19.917  0.00  0.00    +0.069 C 
ENDBRANCH  13  14
ENDBRANCH  12  13
ENDBRANCH  11  12
BRANCH  26  27
ATOM     27  C   UNL     1      47.298  20.790  18.895  0.00  0.00    +0.071 C 
BRANCH  27  28
ATOM     28  C   UNL     1      48.754  20.803  19.366  0.00  0.00    +0.055 C 
BRANCH  28  29
ATOM     29  C   UNL     1      49.669  20.820  18.168  0.00  0.00    -0.046 C 
ATOM     30  C   UNL     1      50.965  20.925  18.335  0.00  0.00    -0.147 C 
ATOM     31  C   UNL     1      51.889  20.805  17.152  0.00  0.00    +0.066 C 
ATOM     32  C   UNL     1      51.529  21.166  19.712  0.00  0.00    +0.069 C 
ENDBRANCH  28  29
ENDBRANCH  27  28
ENDBRANCH  26  27
TORSDOF 7
ENDMDL
MODEL 7
REMARK VINA RESULT:      -5.9      2.676      7.172
REMARK  Name = ZINC95485967
REMARK  12 active torsions:
REMARK  status: ('A' for Active; 'I' for Inactive)
REMARK    1  A    between atoms: C1_1  and  C2_2
REMARK    2  A    between atoms: C4_4  and  O4_32
REMARK    3  A    between atoms: C7_7  and  C8_8
REMARK    4  A    between atoms: C8_8  and  C9_9
REMARK    5  A    between atoms: C9_9  and  C10_10
REMARK    6  A    between atoms: C11_11  and  C12_12
REMARK    7  A    between atoms: C11_11  and  C13_13
REMARK    8  A    between atoms: C21_23  and  C22_25
REMARK    9  A    between atoms: C22_25  and  C23_26
REMARK   10  A    between atoms: C23_26  and  C24_27
REMARK   11  A    between atoms: C25_28  and  C26_29
REMARK   12  A    between atoms: C25_28  and  C27_30
REMARK                            x       y       z     vdW  Elec       q    Type
REMARK                         _______ _______ _______ _____ _____    ______ ____
ROOT
ATOM      1  C   UNL     1      49.047  12.996  16.041  0.00  0.00    +0.076 C 
ATOM      2  C   UNL     1      49.257  14.374  16.614  0.00  0.00    -0.048 A 
ATOM      3  C   UNL     1      50.550  14.868  16.751  0.00  0.00    -0.101 A 
ATOM      4  C   UNL     1      50.770  16.125  17.271  0.00  0.00    +0.180 A 
ATOM      7  C   UNL     1      49.671  16.915  17.666  0.00  0.00    -0.179 A 
ATOM      8  C   UNL     1      48.358  16.399  17.527  0.00  0.00    +0.055 A 
ATOM      9  C   UNL     1      47.258  17.180  17.928  0.00  0.00    -0.160 A 
ATOM     10  C   UNL     1      47.439  18.425  18.447  0.00  0.00    +0.051 A 
ATOM     11  C   UNL     1      46.216  19.193  18.883  0.00  0.00    +0.004 C 
ATOM     18  C   UNL     1      46.549  20.654  19.052  0.00  0.00    +0.386 C 
ATOM     19  O   UNL     1      45.831  21.514  18.598  0.00  0.00    -0.461 OA
ATOM     20  C   UNL     1      47.814  21.009  19.809  0.00  0.00    +0.004 C 
ATOM     21  C   UNL     1      48.954  20.313  19.096  0.00  0.00    +0.406 C 
ATOM     22  O   UNL     1      50.025  20.866  18.956  0.00  0.00    -0.456 OA
ATOM     23  C   UNL     1      48.736  18.958  18.576  0.00  0.00    -0.381 A 
ATOM     24  C   UNL     1      49.853  18.204  18.194  0.00  0.00    +0.343 A 
ATOM     25  O   UNL     1      51.098  18.714  18.334  0.00  0.00    -0.615 OA
ATOM     26  C   UNL     1      48.176  15.118  16.986  0.00  0.00    -0.133 A 
ENDROOT
BRANCH   4   5
ATOM      5  O   UNL     1      52.036  16.600  17.401  0.00  0.00    -0.478 OA
ATOM      6  H   UNL     1      52.176  17.135  18.194  0.00  0.00    +0.385 HD
ENDBRANCH   4   5
BRANCH  11  12
ATOM     12  C   UNL     1      45.715  18.631  20.215  0.00  0.00    +0.061 C 
BRANCH  12  13
ATOM     13  C   UNL     1      44.315  18.041  20.025  0.00  0.00    +0.042 C 
BRANCH  13  14
ATOM     14  C   UNL     1      43.394  19.101  19.481  0.00  0.00    -0.046 C 
ATOM     15  C   UNL     1      42.242  19.329  20.061  0.00  0.00    -0.142 C 
ATOM     16  C   UNL     1      41.234  20.237  19.406  0.00  0.00    +0.069 C 
ATOM     17  C   UNL     1      41.925  18.683  21.386  0.00  0.00    +0.069 C 
ENDBRANCH  13  14
ENDBRANCH  12  13
ENDBRANCH  11  12
BRANCH  26  27
ATOM     27  C   UNL     1      46.786  14.561  16.821  0.00  0.00    +0.071 C 
BRANCH  27  28
ATOM     28  C   UNL     1      46.534  13.495  17.890  0.00  0.00    +0.055 C 
BRANCH  28  29
ATOM     29  C   UNL     1      45.821  14.119  19.063  0.00  0.00    -0.046 C 
ATOM     30  C   UNL     1      46.456  14.300  20.194  0.00  0.00    -0.147 C 
ATOM     31  C   UNL     1      45.790  15.046  21.321  0.00  0.00    +0.066 C 
ATOM     32  C   UNL     1      47.853  13.762  20.368  0.00  0.00    +0.069 C 
ENDBRANCH  28  29
ENDBRANCH  27  28
ENDBRANCH  26  27
TORSDOF 7
ENDMDL
MODEL 8
REMARK VINA RESULT:      -5.9      1.291      6.247
REMARK  Name = ZINC95485967
REMARK  12 active torsions:
REMARK  status: ('A' for Active; 'I' for Inactive)
REMARK    1  A    between atoms: C1_1  and  C2_2
REMARK    2  A    between atoms: C4_4  and  O4_32
REMARK    3  A    between atoms: C7_7  and  C8_8
REMARK    4  A    between atoms: C8_8  and  C9_9
REMARK    5  A    between atoms: C9_9  and  C10_10
REMARK    6  A    between atoms: C11_11  and  C12_12
REMARK    7  A    between atoms: C11_11  and  C13_13
REMARK    8  A    between atoms: C21_23  and  C22_25
REMARK    9  A    between atoms: C22_25  and  C23_26
REMARK   10  A    between atoms: C23_26  and  C24_27
REMARK   11  A    between atoms: C25_28  and  C26_29
REMARK   12  A    between atoms: C25_28  and  C27_30
REMARK                            x       y       z     vdW  Elec       q    Type
REMARK                         _______ _______ _______ _____ _____    ______ ____
ROOT
ATOM      1  C   UNL     1      52.500  19.393  18.109  0.00  0.00    +0.076 C 
ATOM      2  C   UNL     1      51.546  18.230  18.025  0.00  0.00    -0.048 A 
ATOM      3  C   UNL     1      51.846  17.157  17.192  0.00  0.00    -0.101 A 
ATOM      4  C   UNL     1      50.991  16.080  17.098  0.00  0.00    +0.180 A 
ATOM      7  C   UNL     1      49.803  16.070  17.855  0.00  0.00    -0.179 A 
ATOM      8  C   UNL     1      49.504  17.170  18.697  0.00  0.00    +0.055 A 
ATOM      9  C   UNL     1      48.314  17.169  19.449  0.00  0.00    -0.160 A 
ATOM     10  C   UNL     1      47.447  16.123  19.378  0.00  0.00    +0.051 A 
ATOM     11  C   UNL     1      46.177  16.202  20.189  0.00  0.00    +0.004 C 
ATOM     18  C   UNL     1      45.545  14.838  20.307  0.00  0.00    +0.386 C 
ATOM     19  O   UNL     1      45.142  14.427  21.369  0.00  0.00    -0.461 OA
ATOM     20  C   UNL     1      45.433  13.999  19.048  0.00  0.00    +0.004 C 
ATOM     21  C   UNL     1      46.836  13.857  18.498  0.00  0.00    +0.406 C 
ATOM     22  O   UNL     1      47.208  12.807  18.016  0.00  0.00    -0.456 OA
ATOM     23  C   UNL     1      47.736  15.014  18.560  0.00  0.00    -0.381 A 
ATOM     24  C   UNL     1      48.908  14.987  17.792  0.00  0.00    +0.343 A 
ATOM     25  O   UNL     1      49.176  13.928  16.995  0.00  0.00    -0.615 OA
ATOM     26  C   UNL     1      50.404  18.244  18.771  0.00  0.00    -0.133 A 
ENDROOT
BRANCH   4   5
ATOM      5  O   UNL     1      51.292  15.037  16.282  0.00  0.00    -0.478 OA
ATOM      6  H   UNL     1      51.438  15.289  15.360  0.00  0.00    +0.385 HD
ENDBRANCH   4   5
BRANCH  11  12
ATOM     12  C   UNL     1      45.197  17.156  19.500  0.00  0.00    +0.061 C 
BRANCH  12  13
ATOM     13  C   UNL     1      44.403  17.923  20.560  0.00  0.00    +0.042 C 
BRANCH  13  14
ATOM     14  C   UNL     1      43.387  18.807  19.885  0.00  0.00    -0.046 C 
ATOM     15  C   UNL     1      42.281  19.128  20.506  0.00  0.00    -0.142 C 
ATOM     16  C   UNL     1      41.177  19.838  19.765  0.00  0.00    +0.069 C 
ATOM     17  C   UNL     1      42.111  18.789  21.965  0.00  0.00    +0.069 C 
ENDBRANCH  13  14
ENDBRANCH  12  13
ENDBRANCH  11  12
BRANCH  26  27
ATOM     27  C   UNL     1      50.107  19.415  19.670  0.00  0.00    +0.071 C 
BRANCH  27  28
ATOM     28  C   UNL     1      49.095  20.338  18.987  0.00  0.00    +0.055 C 
BRANCH  28  29
ATOM     29  C   UNL     1      48.162  20.915  20.022  0.00  0.00    -0.046 C 
ATOM     30  C   UNL     1      46.869  20.910  19.813  0.00  0.00    -0.147 C 
ATOM     31  C   UNL     1      45.928  21.359  20.900  0.00  0.00    +0.066 C 
ATOM     32  C   UNL     1      46.322  20.456  18.484  0.00  0.00    +0.069 C 
ENDBRANCH  28  29
ENDBRANCH  27  28
ENDBRANCH  26  27
TORSDOF 7
ENDMDL
MODEL 9
REMARK VINA RESULT:      -5.8      3.152      7.258
REMARK  Name = ZINC95485967
REMARK  12 active torsions:
REMARK  status: ('A' for Active; 'I' for Inactive)
REMARK    1  A    between atoms: C1_1  and  C2_2
REMARK    2  A    between atoms: C4_4  and  O4_32
REMARK    3  A    between atoms: C7_7  and  C8_8
REMARK    4  A    between atoms: C8_8  and  C9_9
REMARK    5  A    between atoms: C9_9  and  C10_10
REMARK    6  A    between atoms: C11_11  and  C12_12
REMARK    7  A    between atoms: C11_11  and  C13_13
REMARK    8  A    between atoms: C21_23  and  C22_25
REMARK    9  A    between atoms: C22_25  and  C23_26
REMARK   10  A    between atoms: C23_26  and  C24_27
REMARK   11  A    between atoms: C25_28  and  C26_29
REMARK   12  A    between atoms: C25_28  and  C27_30
REMARK                            x       y       z     vdW  Elec       q    Type
REMARK                         _______ _______ _______ _____ _____    ______ ____
ROOT
ATOM      1  C   UNL     1      49.867  16.629  17.277  0.00  0.00    +0.076 C 
ATOM      2  C   UNL     1      49.371  17.760  18.141  0.00  0.00    -0.048 A 
ATOM      3  C   UNL     1      50.247  18.381  19.024  0.00  0.00    -0.101 A 
ATOM      4  C   UNL     1      49.819  19.418  19.825  0.00  0.00    +0.180 A 
ATOM      7  C   UNL     1      48.480  19.851  19.743  0.00  0.00    -0.179 A 
ATOM      8  C   UNL     1      47.595  19.208  18.843  0.00  0.00    +0.055 A 
ATOM      9  C   UNL     1      46.254  19.630  18.764  0.00  0.00    -0.160 A 
ATOM     10  C   UNL     1      45.798  20.649  19.541  0.00  0.00    +0.051 A 
ATOM     11  C   UNL     1      44.342  21.029  19.425  0.00  0.00    +0.004 C 
ATOM     18  C   UNL     1      44.106  22.388  20.033  0.00  0.00    +0.386 C 
ATOM     19  O   UNL     1      43.449  23.224  19.458  0.00  0.00    -0.461 OA
ATOM     20  C   UNL     1      44.721  22.673  21.390  0.00  0.00    +0.004 C 
ATOM     21  C   UNL     1      46.210  22.438  21.247  0.00  0.00    +0.406 C 
ATOM     22  O   UNL     1      47.007  23.169  21.798  0.00  0.00    -0.456 OA
ATOM     23  C   UNL     1      46.668  21.310  20.428  0.00  0.00    -0.381 A 
ATOM     24  C   UNL     1      48.007  20.909  20.538  0.00  0.00    +0.343 A 
ATOM     25  O   UNL     1      48.837  21.536  21.402  0.00  0.00    -0.615 OA
ATOM     26  C   UNL     1      48.071  18.160  18.040  0.00  0.00    -0.133 A 
ENDROOT
BRANCH   4   5
ATOM      5  O   UNL     1      50.681  20.019  20.685  0.00  0.00    -0.478 OA
ATOM      6  H   UNL     1      50.417  19.959  21.613  0.00  0.00    +0.385 HD
ENDBRANCH   4   5
BRANCH  11  12
ATOM     12  C   UNL     1      43.490  19.991  20.158  0.00  0.00    +0.061 C 
BRANCH  12  13
ATOM     13  C   UNL     1      44.343  19.285  21.215  0.00  0.00    +0.042 C 
BRANCH  13  14
ATOM     14  C   UNL     1      44.064  17.805  21.180  0.00  0.00    -0.046 C 
ATOM     15  C   UNL     1      45.042  16.950  21.341  0.00  0.00    -0.142 C 
ATOM     16  C   UNL     1      44.805  15.480  21.104  0.00  0.00    +0.069 C 
ATOM     17  C   UNL     1      46.404  17.435  21.764  0.00  0.00    +0.069 C 
ENDBRANCH  13  14
ENDBRANCH  12  13
ENDBRANCH  11  12
BRANCH  26  27
ATOM     27  C   UNL     1      47.145  17.474  17.069  0.00  0.00    +0.071 C 
BRANCH  27  28
ATOM     28  C   UNL     1      46.294  16.446  17.817  0.00  0.00    +0.055 C 
BRANCH  28  29
ATOM     29  C   UNL     1      46.609  15.064  17.304  0.00  0.00    -0.046 C 
ATOM     30  C   UNL     1      47.220  14.201  18.078  0.00  0.00    -0.147 C 
ATOM     31  C   UNL     1      47.414  12.781  17.616  0.00  0.00    +0.066 C 
ATOM     32  C   UNL     1      47.728  14.631  19.430  0.00  0.00    +0.069 C 
ENDBRANCH  28  29
ENDBRANCH  27  28
ENDBRANCH  26  27
TORSDOF 7
ENDMDL
