MODEL 1
REMARK VINA RESULT:      -6.4      0.000      0.000
REMARK  Name = ZINC04098683
REMARK  10 active torsions:
REMARK  status: ('A' for Active; 'I' for Inactive)
REMARK    1  A    between atoms: C1_1  and  C2_2
REMARK    2  A    between atoms: C4_4  and  O8_32
REMARK    3  A    between atoms: C7_7  and  C8_8
REMARK    4  A    between atoms: C9_9  and  O4_20
REMARK    5  A    between atoms: C11_11  and  O3_18
REMARK    6  A    between atoms: C12_12  and  C14_15
REMARK    7  A    between atoms: C13_13  and  O1_14
REMARK    8  A    between atoms: C14_15  and  C15_17
REMARK    9  A    between atoms: O3_18  and  C16_19
REMARK   10  A    between atoms: C22_27  and  O7_31
REMARK                            x       y       z     vdW  Elec       q    Type
REMARK                         _______ _______ _______ _____ _____    ______ ____
ROOT
ATOM      1  C   UNL     1      45.528  14.827  19.123  0.00  0.00    +0.111 C 
ATOM      2  C   UNL     1      46.777  15.496  18.611  0.00  0.00    -0.029 A 
ATOM      3  C   UNL     1      47.651  14.792  17.817  0.00  0.00    +0.020 A 
ATOM      4  C   UNL     1      48.813  15.395  17.334  0.00  0.00    +0.172 A 
ATOM      7  C   UNL     1      49.097  16.724  17.656  0.00  0.00    -0.156 A 
ATOM      8  C   UNL     1      48.204  17.452  18.466  0.00  0.00    -0.088 A 
ATOM      9  C   UNL     1      48.496  18.850  18.815  0.00  0.00    +0.433 C 
ATOM     10  C   UNL     1      49.724  19.495  18.306  0.00  0.00    -0.105 A 
ATOM     11  C   UNL     1      50.006  20.819  18.625  0.00  0.00    +0.068 A 
ATOM     12  C   UNL     1      51.158  21.419  18.144  0.00  0.00    +0.061 A 
ATOM     13  C   UNL     1      52.035  20.713  17.347  0.00  0.00    +0.018 A 
ATOM     14  C   UNL     1      51.774  19.387  17.014  0.00  0.00    +0.161 A 
ATOM     17  C   UNL     1      50.615  18.768  17.493  0.00  0.00    -0.150 A 
ATOM     18  O   UNL     1      47.726  19.477  19.518  0.00  0.00    -0.413 OA
ATOM     19  C   UNL     1      50.322  17.366  17.148  0.00  0.00    +0.430 C 
ATOM     20  O   UNL     1      51.093  16.739  16.445  0.00  0.00    -0.401 OA
ATOM     21  C   UNL     1      47.041  16.830  18.949  0.00  0.00    +0.013 A 
ENDROOT
BRANCH  21  22
ATOM     22  C   UNL     1      46.099  17.579  19.803  0.00  0.00    -0.125 A 
ATOM     23  C   UNL     1      46.138  17.424  21.197  0.00  0.00    +0.201 A 
ATOM     26  C   UNL     1      45.252  18.121  22.004  0.00  0.00    -0.094 A 
ATOM     27  C   UNL     1      44.327  18.984  21.443  0.00  0.00    +0.197 A 
ATOM     30  C   UNL     1      44.273  19.151  20.046  0.00  0.00    -0.221 A 
ATOM     34  C   UNL     1      45.166  18.443  19.225  0.00  0.00    +0.215 A 
BRANCH  30  31
ATOM     31  C   UNL     1      43.293  20.059  19.453  0.00  0.00    +0.426 C 
ATOM     32  C   UNL     1      43.548  21.545  19.449  0.00  0.00    +0.079 C 
ATOM     33  O   UNL     1      42.274  19.617  18.964  0.00  0.00    -0.447 OA
ENDBRANCH  30  31
BRANCH  23  24
ATOM     24  O   UNL     1      47.043  16.584  21.758  0.00  0.00    -0.488 OA
ATOM     25  H   UNL     1      47.411  15.935  21.143  0.00  0.00    +0.397 HD
ENDBRANCH  23  24
BRANCH  27  28
ATOM     28  O   UNL     1      43.468  19.665  22.240  0.00  0.00    -0.308 OA
ATOM     29  C   UNL     1      42.204  19.053  22.505  0.00  0.00    +0.255 C 
ENDBRANCH  27  28
BRANCH  34  35
ATOM     35  O   UNL     1      45.123  18.597  17.879  0.00  0.00    -0.483 OA
ATOM     36  H   UNL     1      44.751  19.441  17.591  0.00  0.00    +0.398 HD
ENDBRANCH  34  35
ENDBRANCH  21  22
BRANCH   4   5
ATOM      5  O   UNL     1      49.666  14.690  16.551  0.00  0.00    -0.475 OA
ATOM      6  H   UNL     1      49.685  14.980  15.629  0.00  0.00    +0.400 HD
ENDBRANCH   4   5
BRANCH  14  15
ATOM     15  O   UNL     1      52.640  18.698  16.231  0.00  0.00    -0.476 OA
ATOM     16  H   UNL     1      52.977  17.888  16.635  0.00  0.00    +0.399 HD
ENDBRANCH  14  15
TORSDOF 7
ENDMDL
MODEL 2
REMARK VINA RESULT:      -6.2      2.797      6.909
REMARK  Name = ZINC04098683
REMARK  10 active torsions:
REMARK  status: ('A' for Active; 'I' for Inactive)
REMARK    1  A    between atoms: C1_1  and  C2_2
REMARK    2  A    between atoms: C4_4  and  O8_32
REMARK    3  A    between atoms: C7_7  and  C8_8
REMARK    4  A    between atoms: C9_9  and  O4_20
REMARK    5  A    between atoms: C11_11  and  O3_18
REMARK    6  A    between atoms: C12_12  and  C14_15
REMARK    7  A    between atoms: C13_13  and  O1_14
REMARK    8  A    between atoms: C14_15  and  C15_17
REMARK    9  A    between atoms: O3_18  and  C16_19
REMARK   10  A    between atoms: C22_27  and  O7_31
REMARK                            x       y       z     vdW  Elec       q    Type
REMARK                         _______ _______ _______ _____ _____    ______ ____
ROOT
ATOM      1  C   UNL     1      48.930  18.813  21.471  0.00  0.00    +0.111 C 
ATOM      2  C   UNL     1      47.774  19.707  21.104  0.00  0.00    -0.029 A 
ATOM      3  C   UNL     1      47.854  21.058  21.346  0.00  0.00    +0.020 A 
ATOM      4  C   UNL     1      46.793  21.902  21.013  0.00  0.00    +0.172 A 
ATOM      7  C   UNL     1      45.639  21.376  20.429  0.00  0.00    -0.156 A 
ATOM      8  C   UNL     1      45.552  19.993  20.175  0.00  0.00    -0.088 A 
ATOM      9  C   UNL     1      44.339  19.429  19.565  0.00  0.00    +0.433 C 
ATOM     10  C   UNL     1      43.213  20.316  19.209  0.00  0.00    -0.105 A 
ATOM     11  C   UNL     1      42.064  19.793  18.626  0.00  0.00    +0.068 A 
ATOM     12  C   UNL     1      41.011  20.630  18.293  0.00  0.00    +0.061 A 
ATOM     13  C   UNL     1      41.091  21.986  18.535  0.00  0.00    +0.018 A 
ATOM     14  C   UNL     1      42.230  22.532  19.118  0.00  0.00    +0.161 A 
ATOM     17  C   UNL     1      43.301  21.699  19.459  0.00  0.00    -0.150 A 
ATOM     18  O   UNL     1      44.264  18.233  19.350  0.00  0.00    -0.413 OA
ATOM     19  C   UNL     1      44.516  22.262  20.075  0.00  0.00    +0.430 C 
ATOM     20  O   UNL     1      44.591  23.457  20.290  0.00  0.00    -0.401 OA
ATOM     21  C   UNL     1      46.626  19.157  20.521  0.00  0.00    +0.013 A 
ENDROOT
BRANCH  21  22
ATOM     22  C   UNL     1      46.547  17.705  20.265  0.00  0.00    -0.125 A 
ATOM     23  C   UNL     1      46.007  16.848  21.237  0.00  0.00    +0.201 A 
ATOM     26  C   UNL     1      45.936  15.483  21.005  0.00  0.00    -0.094 A 
ATOM     27  C   UNL     1      46.387  14.953  19.808  0.00  0.00    +0.197 A 
ATOM     30  C   UNL     1      46.932  15.798  18.823  0.00  0.00    -0.221 A 
ATOM     34  C   UNL     1      47.011  17.181  19.056  0.00  0.00    +0.215 A 
BRANCH  30  31
ATOM     31  C   UNL     1      47.413  15.239  17.561  0.00  0.00    +0.426 C 
ATOM     32  C   UNL     1      48.786  14.622  17.485  0.00  0.00    +0.079 C 
ATOM     33  O   UNL     1      46.706  15.270  16.574  0.00  0.00    -0.447 OA
ENDBRANCH  30  31
BRANCH  23  24
ATOM     24  O   UNL     1      45.558  17.357  22.411  0.00  0.00    -0.488 OA
ATOM     25  H   UNL     1      44.741  17.868  22.331  0.00  0.00    +0.397 HD
ENDBRANCH  23  24
BRANCH  27  28
ATOM     28  O   UNL     1      46.308  13.618  19.588  0.00  0.00    -0.308 OA
ATOM     29  C   UNL     1      45.039  13.101  19.185  0.00  0.00    +0.255 C 
ENDBRANCH  27  28
BRANCH  34  35
ATOM     35  O   UNL     1      47.534  18.003  18.114  0.00  0.00    -0.483 OA
ATOM     36  H   UNL     1      47.356  18.941  18.268  0.00  0.00    +0.398 HD
ENDBRANCH  34  35
ENDBRANCH  21  22
BRANCH   4   5
ATOM      5  O   UNL     1      46.884  23.232  21.256  0.00  0.00    -0.475 OA
ATOM      6  H   UNL     1      47.724  23.504  21.652  0.00  0.00    +0.400 HD
ENDBRANCH   4   5
BRANCH  14  15
ATOM     15  O   UNL     1      42.303  23.865  19.354  0.00  0.00    -0.476 OA
ATOM     16  H   UNL     1      42.602  24.092  20.244  0.00  0.00    +0.399 HD
ENDBRANCH  14  15
TORSDOF 7
ENDMDL
MODEL 3
REMARK VINA RESULT:      -6.1      1.981      6.722
REMARK  Name = ZINC04098683
REMARK  10 active torsions:
REMARK  status: ('A' for Active; 'I' for Inactive)
REMARK    1  A    between atoms: C1_1  and  C2_2
REMARK    2  A    between atoms: C4_4  and  O8_32
REMARK    3  A    between atoms: C7_7  and  C8_8
REMARK    4  A    between atoms: C9_9  and  O4_20
REMARK    5  A    between atoms: C11_11  and  O3_18
REMARK    6  A    between atoms: C12_12  and  C14_15
REMARK    7  A    between atoms: C13_13  and  O1_14
REMARK    8  A    between atoms: C14_15  and  C15_17
REMARK    9  A    between atoms: O3_18  and  C16_19
REMARK   10  A    between atoms: C22_27  and  O7_31
REMARK                            x       y       z     vdW  Elec       q    Type
REMARK                         _______ _______ _______ _____ _____    ______ ____
ROOT
ATOM      1  C   UNL     1      49.160  16.167  20.215  0.00  0.00    +0.111 C 
ATOM      2  C   UNL     1      47.852  16.912  20.157  0.00  0.00    -0.029 A 
ATOM      3  C   UNL     1      46.669  16.226  20.301  0.00  0.00    +0.020 A 
ATOM      4  C   UNL     1      45.448  16.899  20.250  0.00  0.00    +0.172 A 
ATOM      7  C   UNL     1      45.420  18.282  20.051  0.00  0.00    -0.156 A 
ATOM      8  C   UNL     1      46.628  18.991  19.907  0.00  0.00    -0.088 A 
ATOM      9  C   UNL     1      46.609  20.446  19.693  0.00  0.00    +0.433 C 
ATOM     10  C   UNL     1      45.319  21.165  19.638  0.00  0.00    -0.105 A 
ATOM     11  C   UNL     1      45.291  22.542  19.443  0.00  0.00    +0.068 A 
ATOM     12  C   UNL     1      44.079  23.211  19.394  0.00  0.00    +0.061 A 
ATOM     13  C   UNL     1      42.892  22.523  19.538  0.00  0.00    +0.018 A 
ATOM     14  C   UNL     1      42.895  21.145  19.734  0.00  0.00    +0.161 A 
ATOM     17  C   UNL     1      44.112  20.456  19.786  0.00  0.00    -0.150 A 
ATOM     18  O   UNL     1      47.653  21.057  19.564  0.00  0.00    -0.413 OA
ATOM     19  C   UNL     1      44.133  18.998  19.996  0.00  0.00    +0.430 C 
ATOM     20  O   UNL     1      43.088  18.386  20.124  0.00  0.00    -0.401 OA
ATOM     21  C   UNL     1      47.848  18.299  19.956  0.00  0.00    +0.013 A 
ENDROOT
BRANCH  21  22
ATOM     22  C   UNL     1      49.122  19.029  19.802  0.00  0.00    -0.125 A 
ATOM     23  C   UNL     1      49.705  19.667  20.908  0.00  0.00    +0.201 A 
ATOM     26  C   UNL     1      50.898  20.358  20.768  0.00  0.00    -0.094 A 
ATOM     27  C   UNL     1      51.532  20.417  19.539  0.00  0.00    +0.197 A 
ATOM     30  C   UNL     1      50.961  19.783  18.419  0.00  0.00    -0.221 A 
ATOM     34  C   UNL     1      49.749  19.086  18.555  0.00  0.00    +0.215 A 
BRANCH  30  31
ATOM     31  C   UNL     1      51.627  19.849  17.119  0.00  0.00    +0.426 C 
ATOM     32  C   UNL     1      51.547  21.107  16.294  0.00  0.00    +0.079 C 
ATOM     33  O   UNL     1      52.245  18.890  16.705  0.00  0.00    -0.447 OA
ENDBRANCH  30  31
BRANCH  23  24
ATOM     24  O   UNL     1      49.096  19.612  22.117  0.00  0.00    -0.488 OA
ATOM     25  H   UNL     1      49.704  19.666  22.867  0.00  0.00    +0.397 HD
ENDBRANCH  23  24
BRANCH  27  28
ATOM     28  O   UNL     1      52.702  21.091  19.412  0.00  0.00    -0.308 OA
ATOM     29  C   UNL     1      52.938  22.158  20.333  0.00  0.00    +0.255 C 
ENDBRANCH  27  28
BRANCH  34  35
ATOM     35  O   UNL     1      49.191  18.472  17.484  0.00  0.00    -0.483 OA
ATOM     36  H   UNL     1      48.316  18.099  17.656  0.00  0.00    +0.398 HD
ENDBRANCH  34  35
ENDBRANCH  21  22
BRANCH   4   5
ATOM      5  O   UNL     1      44.289  16.211  20.393  0.00  0.00    -0.475 OA
ATOM      6  H   UNL     1      44.401  15.323  20.759  0.00  0.00    +0.400 HD
ENDBRANCH   4   5
BRANCH  14  15
ATOM     15  O   UNL     1      41.726  20.474  19.876  0.00  0.00    -0.476 OA
ATOM     16  H   UNL     1      41.731  19.589  19.488  0.00  0.00    +0.399 HD
ENDBRANCH  14  15
TORSDOF 7
ENDMDL
MODEL 4
REMARK VINA RESULT:      -6.1      2.689      5.979
REMARK  Name = ZINC04098683
REMARK  10 active torsions:
REMARK  status: ('A' for Active; 'I' for Inactive)
REMARK    1  A    between atoms: C1_1  and  C2_2
REMARK    2  A    between atoms: C4_4  and  O8_32
REMARK    3  A    between atoms: C7_7  and  C8_8
REMARK    4  A    between atoms: C9_9  and  O4_20
REMARK    5  A    between atoms: C11_11  and  O3_18
REMARK    6  A    between atoms: C12_12  and  C14_15
REMARK    7  A    between atoms: C13_13  and  O1_14
REMARK    8  A    between atoms: C14_15  and  C15_17
REMARK    9  A    between atoms: O3_18  and  C16_19
REMARK   10  A    between atoms: C22_27  and  O7_31
REMARK                            x       y       z     vdW  Elec       q    Type
REMARK                         _______ _______ _______ _____ _____    ______ ____
ROOT
ATOM      1  C   UNL     1      46.092  15.578  20.652  0.00  0.00    +0.111 C 
ATOM      2  C   UNL     1      47.069  16.674  20.311  0.00  0.00    -0.029 A 
ATOM      3  C   UNL     1      47.189  17.762  21.141  0.00  0.00    +0.020 A 
ATOM      4  C   UNL     1      48.089  18.787  20.842  0.00  0.00    +0.172 A 
ATOM      7  C   UNL     1      48.875  18.711  19.690  0.00  0.00    -0.156 A 
ATOM      8  C   UNL     1      48.759  17.597  18.837  0.00  0.00    -0.088 A 
ATOM      9  C   UNL     1      49.580  17.510  17.620  0.00  0.00    +0.433 C 
ATOM     10  C   UNL     1      50.534  18.590  17.297  0.00  0.00    -0.105 A 
ATOM     11  C   UNL     1      51.319  18.515  16.151  0.00  0.00    +0.068 A 
ATOM     12  C   UNL     1      52.214  19.530  15.854  0.00  0.00    +0.061 A 
ATOM     13  C   UNL     1      52.335  20.623  16.688  0.00  0.00    +0.018 A 
ATOM     14  C   UNL     1      51.560  20.720  17.839  0.00  0.00    +0.161 A 
ATOM     17  C   UNL     1      50.653  19.703  18.152  0.00  0.00    -0.150 A 
ATOM     18  O   UNL     1      49.476  16.548  16.881  0.00  0.00    -0.413 OA
ATOM     19  C   UNL     1      49.827  19.790  19.369  0.00  0.00    +0.430 C 
ATOM     20  O   UNL     1      49.930  20.752  20.107  0.00  0.00    -0.401 OA
ATOM     21  C   UNL     1      47.847  16.577  19.150  0.00  0.00    +0.013 A 
ENDROOT
BRANCH  21  22
ATOM     22  C   UNL     1      47.711  15.405  18.262  0.00  0.00    -0.125 A 
ATOM     23  C   UNL     1      46.880  15.471  17.133  0.00  0.00    +0.201 A 
ATOM     26  C   UNL     1      46.744  14.372  16.299  0.00  0.00    -0.094 A 
ATOM     27  C   UNL     1      47.435  13.202  16.566  0.00  0.00    +0.197 A 
ATOM     30  C   UNL     1      48.272  13.119  17.695  0.00  0.00    -0.221 A 
ATOM     34  C   UNL     1      48.409  14.228  18.545  0.00  0.00    +0.215 A 
BRANCH  30  31
ATOM     31  C   UNL     1      48.998  11.882  17.980  0.00  0.00    +0.426 C 
ATOM     32  C   UNL     1      50.287  11.581  17.259  0.00  0.00    +0.079 C 
ATOM     33  O   UNL     1      48.563  11.098  18.797  0.00  0.00    -0.447 OA
ENDBRANCH  30  31
BRANCH  23  24
ATOM     24  O   UNL     1      46.202  16.612  16.859  0.00  0.00    -0.488 OA
ATOM     25  H   UNL     1      45.619  16.549  16.090  0.00  0.00    +0.397 HD
ENDBRANCH  23  24
BRANCH  27  28
ATOM     28  O   UNL     1      47.300  12.134  15.742  0.00  0.00    -0.308 OA
ATOM     29  C   UNL     1      47.769  12.287  14.401  0.00  0.00    +0.255 C 
ENDBRANCH  27  28
BRANCH  34  35
ATOM     35  O   UNL     1      49.212  14.159  19.634  0.00  0.00    -0.483 OA
ATOM     36  H   UNL     1      48.896  14.672  20.390  0.00  0.00    +0.398 HD
ENDBRANCH  34  35
ENDBRANCH  21  22
BRANCH   4   5
ATOM      5  O   UNL     1      48.198  19.855  21.669  0.00  0.00    -0.475 OA
ATOM      6  H   UNL     1      47.495  19.914  22.331  0.00  0.00    +0.400 HD
ENDBRANCH   4   5
BRANCH  14  15
ATOM     15  O   UNL     1      51.684  21.796  18.654  0.00  0.00    -0.476 OA
ATOM     16  H   UNL     1      52.326  22.450  18.348  0.00  0.00    +0.399 HD
ENDBRANCH  14  15
TORSDOF 7
ENDMDL
MODEL 5
REMARK VINA RESULT:      -6.1      1.732      3.997
REMARK  Name = ZINC04098683
REMARK  10 active torsions:
REMARK  status: ('A' for Active; 'I' for Inactive)
REMARK    1  A    between atoms: C1_1  and  C2_2
REMARK    2  A    between atoms: C4_4  and  O8_32
REMARK    3  A    between atoms: C7_7  and  C8_8
REMARK    4  A    between atoms: C9_9  and  O4_20
REMARK    5  A    between atoms: C11_11  and  O3_18
REMARK    6  A    between atoms: C12_12  and  C14_15
REMARK    7  A    between atoms: C13_13  and  O1_14
REMARK    8  A    between atoms: C14_15  and  C15_17
REMARK    9  A    between atoms: O3_18  and  C16_19
REMARK   10  A    between atoms: C22_27  and  O7_31
REMARK                            x       y       z     vdW  Elec       q    Type
REMARK                         _______ _______ _______ _____ _____    ______ ____
ROOT
ATOM      1  C   UNL     1      47.151  21.855  21.041  0.00  0.00    +0.111 C 
ATOM      2  C   UNL     1      47.756  20.707  20.274  0.00  0.00    -0.029 A 
ATOM      3  C   UNL     1      49.085  20.745  19.926  0.00  0.00    +0.020 A 
ATOM      4  C   UNL     1      49.662  19.691  19.216  0.00  0.00    +0.172 A 
ATOM      7  C   UNL     1      48.888  18.586  18.853  0.00  0.00    -0.156 A 
ATOM      8  C   UNL     1      47.527  18.540  19.210  0.00  0.00    -0.088 A 
ATOM      9  C   UNL     1      46.703  17.383  18.829  0.00  0.00    +0.433 C 
ATOM     10  C   UNL     1      47.308  16.264  18.078  0.00  0.00    -0.105 A 
ATOM     11  C   UNL     1      46.538  15.162  17.718  0.00  0.00    +0.068 A 
ATOM     12  C   UNL     1      47.110  14.115  17.015  0.00  0.00    +0.061 A 
ATOM     13  C   UNL     1      48.445  14.153  16.666  0.00  0.00    +0.018 A 
ATOM     14  C   UNL     1      49.234  15.244  17.015  0.00  0.00    +0.161 A 
ATOM     17  C   UNL     1      48.670  16.309  17.725  0.00  0.00    -0.150 A 
ATOM     18  O   UNL     1      45.525  17.346  19.134  0.00  0.00    -0.413 OA
ATOM     19  C   UNL     1      49.493  17.471  18.104  0.00  0.00    +0.430 C 
ATOM     20  O   UNL     1      50.670  17.508  17.797  0.00  0.00    -0.401 OA
ATOM     21  C   UNL     1      46.960  19.610  19.920  0.00  0.00    +0.013 A 
ENDROOT
BRANCH  21  22
ATOM     22  C   UNL     1      45.532  19.577  20.297  0.00  0.00    -0.125 A 
ATOM     23  C   UNL     1      45.123  18.870  21.438  0.00  0.00    +0.201 A 
ATOM     26  C   UNL     1      43.783  18.831  21.794  0.00  0.00    -0.094 A 
ATOM     27  C   UNL     1      42.839  19.498  21.033  0.00  0.00    +0.197 A 
ATOM     30  C   UNL     1      43.232  20.212  19.886  0.00  0.00    -0.221 A 
ATOM     34  C   UNL     1      44.588  20.250  19.518  0.00  0.00    +0.215 A 
BRANCH  30  31
ATOM     31  C   UNL     1      42.234  20.913  19.079  0.00  0.00    +0.426 C 
ATOM     32  C   UNL     1      41.335  20.137  18.152  0.00  0.00    +0.079 C 
ATOM     33  O   UNL     1      42.130  22.120  19.157  0.00  0.00    -0.447 OA
ENDBRANCH  30  31
BRANCH  23  24
ATOM     24  O   UNL     1      46.040  18.216  22.193  0.00  0.00    -0.488 OA
ATOM     25  H   UNL     1      45.675  17.485  22.710  0.00  0.00    +0.397 HD
ENDBRANCH  23  24
BRANCH  27  28
ATOM     28  O   UNL     1      41.532  19.459  21.392  0.00  0.00    -0.308 OA
ATOM     29  C   UNL     1      40.876  18.192  21.314  0.00  0.00    +0.255 C 
ENDBRANCH  27  28
BRANCH  34  35
ATOM     35  O   UNL     1      44.977  20.934  18.416  0.00  0.00    -0.483 OA
ATOM     36  H   UNL     1      44.694  20.533  17.583  0.00  0.00    +0.398 HD
ENDBRANCH  34  35
ENDBRANCH  21  22
BRANCH   4   5
ATOM      5  O   UNL     1      50.974  19.740  18.879  0.00  0.00    -0.475 OA
ATOM      6  H   UNL     1      51.419  18.882  18.902  0.00  0.00    +0.400 HD
ENDBRANCH   4   5
BRANCH  14  15
ATOM     15  O   UNL     1      50.545  15.275  16.668  0.00  0.00    -0.476 OA
ATOM     16  H   UNL     1      50.796  14.607  16.018  0.00  0.00    +0.399 HD
ENDBRANCH  14  15
TORSDOF 7
ENDMDL
MODEL 6
REMARK VINA RESULT:      -6.0      1.790      6.823
REMARK  Name = ZINC04098683
REMARK  10 active torsions:
REMARK  status: ('A' for Active; 'I' for Inactive)
REMARK    1  A    between atoms: C1_1  and  C2_2
REMARK    2  A    between atoms: C4_4  and  O8_32
REMARK    3  A    between atoms: C7_7  and  C8_8
REMARK    4  A    between atoms: C9_9  and  O4_20
REMARK    5  A    between atoms: C11_11  and  O3_18
REMARK    6  A    between atoms: C12_12  and  C14_15
REMARK    7  A    between atoms: C13_13  and  O1_14
REMARK    8  A    between atoms: C14_15  and  C15_17
REMARK    9  A    between atoms: O3_18  and  C16_19
REMARK   10  A    between atoms: C22_27  and  O7_31
REMARK                            x       y       z     vdW  Elec       q    Type
REMARK                         _______ _______ _______ _____ _____    ______ ____
ROOT
ATOM      1  C   UNL     1      48.933  14.987  19.610  0.00  0.00    +0.111 C 
ATOM      2  C   UNL     1      47.734  15.877  19.812  0.00  0.00    -0.029 A 
ATOM      3  C   UNL     1      46.592  15.364  20.381  0.00  0.00    +0.020 A 
ATOM      4  C   UNL     1      45.472  16.172  20.575  0.00  0.00    +0.172 A 
ATOM      7  C   UNL     1      45.504  17.515  20.191  0.00  0.00    -0.156 A 
ATOM      8  C   UNL     1      46.672  18.048  19.612  0.00  0.00    -0.088 A 
ATOM      9  C   UNL     1      46.714  19.459  19.201  0.00  0.00    +0.433 C 
ATOM     10  C   UNL     1      45.532  20.321  19.405  0.00  0.00    -0.105 A 
ATOM     11  C   UNL     1      45.564  21.659  19.025  0.00  0.00    +0.068 A 
ATOM     12  C   UNL     1      44.453  22.463  19.219  0.00  0.00    +0.061 A 
ATOM     13  C   UNL     1      43.306  21.948  19.790  0.00  0.00    +0.018 A 
ATOM     14  C   UNL     1      43.251  20.613  20.178  0.00  0.00    +0.161 A 
ATOM     17  C   UNL     1      44.366  19.789  19.987  0.00  0.00    -0.150 A 
ATOM     18  O   UNL     1      47.722  19.917  18.696  0.00  0.00    -0.413 OA
ATOM     19  C   UNL     1      44.324  18.374  20.395  0.00  0.00    +0.430 C 
ATOM     20  O   UNL     1      43.315  17.915  20.899  0.00  0.00    -0.401 OA
ATOM     21  C   UNL     1      47.789  17.220  19.418  0.00  0.00    +0.013 A 
ENDROOT
BRANCH  21  22
ATOM     22  C   UNL     1      49.018  17.764  18.808  0.00  0.00    -0.125 A 
ATOM     23  C   UNL     1      49.255  17.595  17.435  0.00  0.00    +0.201 A 
ATOM     26  C   UNL     1      50.410  18.099  16.857  0.00  0.00    -0.094 A 
ATOM     27  C   UNL     1      51.336  18.782  17.626  0.00  0.00    +0.197 A 
ATOM     30  C   UNL     1      51.114  18.960  19.005  0.00  0.00    -0.221 A 
ATOM     34  C   UNL     1      49.948  18.447  19.596  0.00  0.00    +0.215 A 
BRANCH  30  31
ATOM     31  C   UNL     1      52.094  19.678  19.819  0.00  0.00    +0.426 C 
ATOM     32  C   UNL     1      52.370  21.135  19.555  0.00  0.00    +0.079 C 
ATOM     33  O   UNL     1      52.685  19.099  20.707  0.00  0.00    -0.447 OA
ENDBRANCH  30  31
BRANCH  23  24
ATOM     24  O   UNL     1      48.353  16.931  16.670  0.00  0.00    -0.488 OA
ATOM     25  H   UNL     1      47.786  17.508  16.141  0.00  0.00    +0.397 HD
ENDBRANCH  23  24
BRANCH  27  28
ATOM     28  O   UNL     1      52.460  19.276  17.051  0.00  0.00    -0.308 OA
ATOM     29  C   UNL     1      52.297  20.023  15.845  0.00  0.00    +0.255 C 
ENDBRANCH  27  28
BRANCH  34  35
ATOM     35  O   UNL     1      49.725  18.613  20.922  0.00  0.00    -0.483 OA
ATOM     36  H   UNL     1      49.822  17.803  21.441  0.00  0.00    +0.398 HD
ENDBRANCH  34  35
ENDBRANCH  21  22
BRANCH   4   5
ATOM      5  O   UNL     1      44.352  15.654  21.137  0.00  0.00    -0.475 OA
ATOM      6  H   UNL     1      44.524  14.970  21.799  0.00  0.00    +0.400 HD
ENDBRANCH   4   5
BRANCH  14  15
ATOM     15  O   UNL     1      42.123  20.112  20.738  0.00  0.00    -0.476 OA
ATOM     16  H   UNL     1      42.210  19.899  21.676  0.00  0.00    +0.399 HD
ENDBRANCH  14  15
TORSDOF 7
ENDMDL
MODEL 7
REMARK VINA RESULT:      -6.0      2.603      6.966
REMARK  Name = ZINC04098683
REMARK  10 active torsions:
REMARK  status: ('A' for Active; 'I' for Inactive)
REMARK    1  A    between atoms: C1_1  and  C2_2
REMARK    2  A    between atoms: C4_4  and  O8_32
REMARK    3  A    between atoms: C7_7  and  C8_8
REMARK    4  A    between atoms: C9_9  and  O4_20
REMARK    5  A    between atoms: C11_11  and  O3_18
REMARK    6  A    between atoms: C12_12  and  C14_15
REMARK    7  A    between atoms: C13_13  and  O1_14
REMARK    8  A    between atoms: C14_15  and  C15_17
REMARK    9  A    between atoms: O3_18  and  C16_19
REMARK   10  A    between atoms: C22_27  and  O7_31
REMARK                            x       y       z     vdW  Elec       q    Type
REMARK                         _______ _______ _______ _____ _____    ______ ____
ROOT
ATOM      1  C   UNL     1      45.801  13.431  18.729  0.00  0.00    +0.111 C 
ATOM      2  C   UNL     1      46.481  14.775  18.782  0.00  0.00    -0.029 A 
ATOM      3  C   UNL     1      45.924  15.792  19.520  0.00  0.00    +0.020 A 
ATOM      4  C   UNL     1      46.539  17.043  19.580  0.00  0.00    +0.172 A 
ATOM      7  C   UNL     1      47.731  17.270  18.888  0.00  0.00    -0.156 A 
ATOM      8  C   UNL     1      48.309  16.231  18.133  0.00  0.00    -0.088 A 
ATOM      9  C   UNL     1      49.561  16.461  17.397  0.00  0.00    +0.433 C 
ATOM     10  C   UNL     1      50.218  17.783  17.458  0.00  0.00    -0.105 A 
ATOM     11  C   UNL     1      51.406  18.009  16.770  0.00  0.00    +0.068 A 
ATOM     12  C   UNL     1      52.018  19.250  16.831  0.00  0.00    +0.061 A 
ATOM     13  C   UNL     1      51.459  20.272  17.572  0.00  0.00    +0.018 A 
ATOM     14  C   UNL     1      50.271  20.069  18.268  0.00  0.00    +0.161 A 
ATOM     17  C   UNL     1      49.642  18.821  18.215  0.00  0.00    -0.150 A 
ATOM     18  O   UNL     1      50.057  15.564  16.742  0.00  0.00    -0.413 OA
ATOM     19  C   UNL     1      48.385  18.589  18.949  0.00  0.00    +0.430 C 
ATOM     20  O   UNL     1      47.888  19.487  19.603  0.00  0.00    -0.401 OA
ATOM     21  C   UNL     1      47.675  14.980  18.078  0.00  0.00    +0.013 A 
ENDROOT
BRANCH  21  22
ATOM     22  C   UNL     1      48.267  13.882  17.287  0.00  0.00    -0.125 A 
ATOM     23  C   UNL     1      47.819  13.638  15.980  0.00  0.00    +0.201 A 
ATOM     26  C   UNL     1      48.368  12.605  15.234  0.00  0.00    -0.094 A 
ATOM     27  C   UNL     1      49.369  11.813  15.768  0.00  0.00    +0.197 A 
ATOM     30  C   UNL     1      49.829  12.044  17.079  0.00  0.00    -0.221 A 
ATOM     34  C   UNL     1      49.273  13.086  17.840  0.00  0.00    +0.215 A 
BRANCH  30  31
ATOM     31  C   UNL     1      50.884  11.204  17.645  0.00  0.00    +0.426 C 
ATOM     32  C   UNL     1      52.325  11.465  17.292  0.00  0.00    +0.079 C 
ATOM     33  O   UNL     1      50.597  10.297  18.399  0.00  0.00    -0.447 OA
ENDBRANCH  30  31
BRANCH  23  24
ATOM     24  O   UNL     1      46.842  14.410  15.445  0.00  0.00    -0.488 OA
ATOM     25  H   UNL     1      46.913  14.527  14.487  0.00  0.00    +0.397 HD
ENDBRANCH  23  24
BRANCH  27  28
ATOM     28  O   UNL     1      49.903  10.809  15.030  0.00  0.00    -0.308 OA
ATOM     29  C   UNL     1      50.633  11.182  13.860  0.00  0.00    +0.255 C 
ENDBRANCH  27  28
BRANCH  34  35
ATOM     35  O   UNL     1      49.709  13.317  19.101  0.00  0.00    -0.483 OA
ATOM     36  H   UNL     1      50.396  13.995  19.162  0.00  0.00    +0.398 HD
ENDBRANCH  34  35
ENDBRANCH  21  22
BRANCH   4   5
ATOM      5  O   UNL     1      45.980  18.038  20.311  0.00  0.00    -0.475 OA
ATOM      6  H   UNL     1      46.064  18.915  19.912  0.00  0.00    +0.400 HD
ENDBRANCH   4   5
BRANCH  14  15
ATOM     15  O   UNL     1      49.727  21.076  18.994  0.00  0.00    -0.476 OA
ATOM     16  H   UNL     1      50.217  21.907  18.944  0.00  0.00    +0.399 HD
ENDBRANCH  14  15
TORSDOF 7
ENDMDL
MODEL 8
REMARK VINA RESULT:      -6.0      3.231      6.821
REMARK  Name = ZINC04098683
REMARK  10 active torsions:
REMARK  status: ('A' for Active; 'I' for Inactive)
REMARK    1  A    between atoms: C1_1  and  C2_2
REMARK    2  A    between atoms: C4_4  and  O8_32
REMARK    3  A    between atoms: C7_7  and  C8_8
REMARK    4  A    between atoms: C9_9  and  O4_20
REMARK    5  A    between atoms: C11_11  and  O3_18
REMARK    6  A    between atoms: C12_12  and  C14_15
REMARK    7  A    between atoms: C13_13  and  O1_14
REMARK    8  A    between atoms: C14_15  and  C15_17
REMARK    9  A    between atoms: O3_18  and  C16_19
REMARK   10  A    between atoms: C22_27  and  O7_31
REMARK                            x       y       z     vdW  Elec       q    Type
REMARK                         _______ _______ _______ _____ _____    ______ ____
ROOT
ATOM      1  C   UNL     1      47.964  13.343  19.916  0.00  0.00    +0.111 C 
ATOM      2  C   UNL     1      48.390  14.769  19.681  0.00  0.00    -0.029 A 
ATOM      3  C   UNL     1      47.925  15.765  20.507  0.00  0.00    +0.020 A 
ATOM      4  C   UNL     1      48.309  17.091  20.305  0.00  0.00    +0.172 A 
ATOM      7  C   UNL     1      49.173  17.417  19.256  0.00  0.00    -0.156 A 
ATOM      8  C   UNL     1      49.656  16.401  18.409  0.00  0.00    -0.088 A 
ATOM      9  C   UNL     1      50.562  16.734  17.299  0.00  0.00    +0.433 C 
ATOM     10  C   UNL     1      50.973  18.136  17.080  0.00  0.00    -0.105 A 
ATOM     11  C   UNL     1      51.834  18.460  16.037  0.00  0.00    +0.068 A 
ATOM     12  C   UNL     1      52.218  19.776  15.837  0.00  0.00    +0.061 A 
ATOM     13  C   UNL     1      51.751  20.776  16.666  0.00  0.00    +0.018 A 
ATOM     14  C   UNL     1      50.888  20.475  17.716  0.00  0.00    +0.161 A 
ATOM     17  C   UNL     1      50.493  19.151  17.930  0.00  0.00    -0.150 A 
ATOM     18  O   UNL     1      50.975  15.856  16.565  0.00  0.00    -0.413 OA
ATOM     19  C   UNL     1      49.582  18.815  19.038  0.00  0.00    +0.430 C 
ATOM     20  O   UNL     1      49.167  19.693  19.772  0.00  0.00    -0.401 OA
ATOM     21  C   UNL     1      49.256  15.072  18.622  0.00  0.00    +0.013 A 
ENDROOT
BRANCH  21  22
ATOM     22  C   UNL     1      49.751  13.997  17.739  0.00  0.00    -0.125 A 
ATOM     23  C   UNL     1      50.874  13.242  18.111  0.00  0.00    +0.201 A 
ATOM     26  C   UNL     1      51.346  12.235  17.283  0.00  0.00    -0.094 A 
ATOM     27  C   UNL     1      50.709  11.959  16.086  0.00  0.00    +0.197 A 
ATOM     30  C   UNL     1      49.581  12.707  15.697  0.00  0.00    -0.221 A 
ATOM     34  C   UNL     1      49.102  13.731  16.530  0.00  0.00    +0.215 A 
BRANCH  30  31
ATOM     31  C   UNL     1      48.910  12.418  14.430  0.00  0.00    +0.426 C 
ATOM     32  C   UNL     1      49.522  12.877  13.132  0.00  0.00    +0.079 C 
ATOM     33  O   UNL     1      47.860  11.809  14.425  0.00  0.00    -0.447 OA
ENDBRANCH  30  31
BRANCH  23  24
ATOM     24  O   UNL     1      51.503  13.501  19.283  0.00  0.00    -0.488 OA
ATOM     25  H   UNL     1      51.786  12.709  19.762  0.00  0.00    +0.397 HD
ENDBRANCH  23  24
BRANCH  27  28
ATOM     28  O   UNL     1      51.174  10.969  15.285  0.00  0.00    -0.308 OA
ATOM     29  C   UNL     1      52.575  10.964  15.007  0.00  0.00    +0.255 C 
ENDBRANCH  27  28
BRANCH  34  35
ATOM     35  O   UNL     1      48.018  14.457  16.166  0.00  0.00    -0.483 OA
ATOM     36  H   UNL     1      47.242  14.313  16.724  0.00  0.00    +0.398 HD
ENDBRANCH  34  35
ENDBRANCH  21  22
BRANCH   4   5
ATOM      5  O   UNL     1      47.844  18.063  21.127  0.00  0.00    -0.475 OA
ATOM      6  H   UNL     1      48.389  18.862  21.140  0.00  0.00    +0.400 HD
ENDBRANCH   4   5
BRANCH  14  15
ATOM     15  O   UNL     1      50.433  21.461  18.527  0.00  0.00    -0.476 OA
ATOM     16  H   UNL     1      49.623  21.237  19.003  0.00  0.00    +0.399 HD
ENDBRANCH  14  15
TORSDOF 7
ENDMDL
MODEL 9
REMARK VINA RESULT:      -5.9      2.907      6.978
REMARK  Name = ZINC04098683
REMARK  10 active torsions:
REMARK  status: ('A' for Active; 'I' for Inactive)
REMARK    1  A    between atoms: C1_1  and  C2_2
REMARK    2  A    between atoms: C4_4  and  O8_32
REMARK    3  A    between atoms: C7_7  and  C8_8
REMARK    4  A    between atoms: C9_9  and  O4_20
REMARK    5  A    between atoms: C11_11  and  O3_18
REMARK    6  A    between atoms: C12_12  and  C14_15
REMARK    7  A    between atoms: C13_13  and  O1_14
REMARK    8  A    between atoms: C14_15  and  C15_17
REMARK    9  A    between atoms: O3_18  and  C16_19
REMARK   10  A    between atoms: C22_27  and  O7_31
REMARK                            x       y       z     vdW  Elec       q    Type
REMARK                         _______ _______ _______ _____ _____    ______ ____
ROOT
ATOM      1  C   UNL     1      49.105  18.578  21.359  0.00  0.00    +0.111 C 
ATOM      2  C   UNL     1      47.950  19.494  21.047  0.00  0.00    -0.029 A 
ATOM      3  C   UNL     1      48.049  20.837  21.327  0.00  0.00    +0.020 A 
ATOM      4  C   UNL     1      46.990  21.700  21.045  0.00  0.00    +0.172 A 
ATOM      7  C   UNL     1      45.816  21.203  20.474  0.00  0.00    -0.156 A 
ATOM      8  C   UNL     1      45.710  19.829  20.181  0.00  0.00    -0.088 A 
ATOM      9  C   UNL     1      44.477  19.295  19.583  0.00  0.00    +0.433 C 
ATOM     10  C   UNL     1      43.351  20.204  19.281  0.00  0.00    -0.105 A 
ATOM     11  C   UNL     1      42.183  19.709  18.710  0.00  0.00    +0.068 A 
ATOM     12  C   UNL     1      41.132  20.566  18.428  0.00  0.00    +0.061 A 
ATOM     13  C   UNL     1      41.231  21.913  18.709  0.00  0.00    +0.018 A 
ATOM     14  C   UNL     1      42.390  22.431  19.281  0.00  0.00    +0.161 A 
ATOM     17  C   UNL     1      43.459  21.577  19.571  0.00  0.00    -0.150 A 
ATOM     18  O   UNL     1      44.384  18.108  19.334  0.00  0.00    -0.413 OA
ATOM     19  C   UNL     1      44.694  22.110  20.174  0.00  0.00    +0.430 C 
ATOM     20  O   UNL     1      44.786  23.297  20.423  0.00  0.00    -0.401 OA
ATOM     21  C   UNL     1      46.783  18.973  20.475  0.00  0.00    +0.013 A 
ENDROOT
BRANCH  21  22
ATOM     22  C   UNL     1      46.683  17.530  20.178  0.00  0.00    -0.125 A 
ATOM     23  C   UNL     1      46.971  17.057  18.888  0.00  0.00    +0.201 A 
ATOM     26  C   UNL     1      46.874  15.704  18.602  0.00  0.00    -0.094 A 
ATOM     27  C   UNL     1      46.503  14.805  19.587  0.00  0.00    +0.197 A 
ATOM     30  C   UNL     1      46.211  15.263  20.887  0.00  0.00    -0.221 A 
ATOM     34  C   UNL     1      46.303  16.634  21.180  0.00  0.00    +0.215 A 
BRANCH  30  31
ATOM     31  C   UNL     1      45.815  14.316  21.927  0.00  0.00    +0.426 C 
ATOM     32  C   UNL     1      46.831  13.364  22.505  0.00  0.00    +0.079 C 
ATOM     33  O   UNL     1      44.669  14.295  22.324  0.00  0.00    -0.447 OA
ENDBRANCH  30  31
BRANCH  23  24
ATOM     24  O   UNL     1      47.339  17.926  17.915  0.00  0.00    -0.488 OA
ATOM     25  H   UNL     1      46.910  18.791  17.979  0.00  0.00    +0.397 HD
ENDBRANCH  23  24
BRANCH  27  28
ATOM     28  O   UNL     1      46.417  13.483  19.300  0.00  0.00    -0.308 OA
ATOM     29  C   UNL     1      45.224  13.038  18.651  0.00  0.00    +0.255 C 
ENDBRANCH  27  28
BRANCH  34  35
ATOM     35  O   UNL     1      46.025  17.085  22.426  0.00  0.00    -0.483 OA
ATOM     36  H   UNL     1      45.192  17.573  22.491  0.00  0.00    +0.398 HD
ENDBRANCH  34  35
ENDBRANCH  21  22
BRANCH   4   5
ATOM      5  O   UNL     1      47.100  23.021  21.326  0.00  0.00    -0.475 OA
ATOM      6  H   UNL     1      47.474  23.209  22.198  0.00  0.00    +0.400 HD
ENDBRANCH   4   5
BRANCH  14  15
ATOM     15  O   UNL     1      42.481  23.755  19.554  0.00  0.00    -0.476 OA
ATOM     16  H   UNL     1      43.299  24.008  20.002  0.00  0.00    +0.399 HD
ENDBRANCH  14  15
TORSDOF 7
ENDMDL
