MODEL 1
REMARK VINA RESULT:      -6.1      0.000      0.000
REMARK  Name = ZINC95485899
REMARK  15 active torsions:
REMARK  status: ('A' for Active; 'I' for Inactive)
REMARK    1  A    between atoms: C2_2  and  C3_3
REMARK    2  A    between atoms: C4_4  and  C5_5
REMARK    3  A    between atoms: C4_4  and  C7_7
REMARK    4  A    between atoms: C8_8  and  C9_9
REMARK    5  A    between atoms: C9_9  and  O2_11
REMARK    6  A    between atoms: O2_11  and  C10_12
REMARK    7  A    between atoms: C14_19  and  O6_29
REMARK    8  A    between atoms: C16_23  and  C18_27
REMARK    9  A    between atoms: C18_27  and  O5_28
REMARK   10  A    between atoms: O6_29  and  C19_30
REMARK   11  A    between atoms: C20_32  and  O11_45
REMARK   12  A    between atoms: C21_34  and  O10_44
REMARK   13  A    between atoms: C22_36  and  O9_43
REMARK   14  A    between atoms: C23_38  and  C24_41
REMARK   15  A    between atoms: C24_41  and  O8_42
REMARK                            x       y       z     vdW  Elec       q    Type
REMARK                         _______ _______ _______ _____ _____    ______ ____
ROOT
ATOM      9  C   UNL     1      48.332  17.434  18.045  0.00  0.00    +0.218 C 
ATOM     10  C   UNL     1      49.388  16.332  17.984  0.00  0.00    +0.042 C 
ATOM     11  C   UNL     1      50.777  16.698  17.592  0.00  0.00    -0.141 C 
ATOM     12  C   UNL     1      51.469  15.806  16.901  0.00  0.00    +0.252 C 
ATOM     13  O   UNL     1      51.010  14.602  16.500  0.00  0.00    -0.316 OA
ATOM     14  C   UNL     1      49.672  14.184  16.832  0.00  0.00    +0.372 C 
ATOM     31  C   UNL     1      48.824  15.435  16.844  0.00  0.00    +0.002 C 
ATOM     32  C   UNL     1      47.346  15.326  17.195  0.00  0.00    +0.015 C 
ATOM     36  O   UNL     1      46.462  16.329  16.675  0.00  0.00    -0.291 OA
ATOM     37  C   UNL     1      47.002  16.640  17.953  0.00  0.00    +0.155 C 
ENDROOT
BRANCH   9   8
ATOM      8  O   UNL     1      48.413  18.145  19.283  0.00  0.00    -0.333 OA
BRANCH   8   7
ATOM      7  C   UNL     1      48.119  19.462  19.254  0.00  0.00    +0.506 C 
ATOM     38  O   UNL     1      48.954  20.263  18.879  0.00  0.00    -0.507 OA
BRANCH   7   6
ATOM      5  C   UNL     1      45.994  20.457  18.748  0.00  0.00    +0.156 C 
ATOM      6  C   UNL     1      46.838  19.910  19.657  0.00  0.00    -0.079 C 
BRANCH   5   4
ATOM      3  C   UNL     1      43.567  20.043  18.731  0.00  0.00    +0.062 C 
ATOM      4  C   UNL     1      44.632  20.818  19.140  0.00  0.00    -0.096 C 
BRANCH   3   2
ATOM      1  C   UNL     1      41.521  19.553  19.853  0.00  0.00    +0.068 C 
ATOM      2  C   UNL     1      42.250  20.393  19.110  0.00  0.00    -0.031 C 
ENDBRANCH   3   2
BRANCH   4  39
ATOM     39  C   UNL     1      44.397  22.013  19.974  0.00  0.00    -0.001 C 
ATOM     40  C   UNL     1      44.715  23.217  19.512  0.00  0.00    +0.038 C 
ENDBRANCH   4  39
ENDBRANCH   5   4
ENDBRANCH   7   6
ENDBRANCH   8   7
ENDBRANCH   9   8
BRANCH  14  15
ATOM     15  O   UNL     1      49.186  13.266  15.851  0.00  0.00    -0.343 OA
BRANCH  15  16
ATOM     16  C   UNL     1      50.187  12.802  14.943  0.00  0.00    +0.301 C 
ATOM     17  C   UNL     1      50.221  11.272  14.960  0.00  0.00    +0.141 C 
ATOM     20  C   UNL     1      51.254  10.780  13.940  0.00  0.00    +0.165 C 
ATOM     23  C   UNL     1      50.897  11.339  12.559  0.00  0.00    +0.172 C 
ATOM     26  C   UNL     1      50.836  12.866  12.635  0.00  0.00    +0.197 C 
ATOM     30  O   UNL     1      49.880  13.256  13.623  0.00  0.00    -0.360 OA
BRANCH  17  18
ATOM     18  O   UNL     1      50.584  10.816  16.265  0.00  0.00    -0.554 OA
ATOM     19  H   UNL     1      51.359  10.236  16.277  0.00  0.00    +0.392 HD
ENDBRANCH  17  18
BRANCH  20  21
ATOM     21  O   UNL     1      52.554  11.234  14.319  0.00  0.00    -0.547 OA
ATOM     22  H   UNL     1      53.276  10.810  13.834  0.00  0.00    +0.388 HD
ENDBRANCH  20  21
BRANCH  23  24
ATOM     24  O   UNL     1      51.893  10.945  11.613  0.00  0.00    -0.542 OA
ATOM     25  H   UNL     1      51.624  11.056  10.690  0.00  0.00    +0.386 HD
ENDBRANCH  23  24
BRANCH  26  27
ATOM     27  C   UNL     1      50.422  13.428  11.274  0.00  0.00    +0.217 C 
BRANCH  27  28
ATOM     28  O   UNL     1      51.581  13.892  10.578  0.00  0.00    -0.563 OA
ATOM     29  H   UNL     1      51.399  14.592   9.934  0.00  0.00    +0.381 HD
ENDBRANCH  27  28
ENDBRANCH  26  27
ENDBRANCH  15  16
ENDBRANCH  14  15
BRANCH  32  33
ATOM     33  C   UNL     1      46.800  13.950  17.584  0.00  0.00    +0.252 C 
BRANCH  33  34
ATOM     34  O   UNL     1      46.240  13.317  16.431  0.00  0.00    -0.562 OA
ATOM     35  H   UNL     1      45.313  13.537  16.273  0.00  0.00    +0.387 HD
ENDBRANCH  33  34
ENDBRANCH  32  33
TORSDOF 15
ENDMDL
MODEL 2
REMARK VINA RESULT:      -6.0      2.371      3.872
REMARK  Name = ZINC95485899
REMARK  15 active torsions:
REMARK  status: ('A' for Active; 'I' for Inactive)
REMARK    1  A    between atoms: C2_2  and  C3_3
REMARK    2  A    between atoms: C4_4  and  C5_5
REMARK    3  A    between atoms: C4_4  and  C7_7
REMARK    4  A    between atoms: C8_8  and  C9_9
REMARK    5  A    between atoms: C9_9  and  O2_11
REMARK    6  A    between atoms: O2_11  and  C10_12
REMARK    7  A    between atoms: C14_19  and  O6_29
REMARK    8  A    between atoms: C16_23  and  C18_27
REMARK    9  A    between atoms: C18_27  and  O5_28
REMARK   10  A    between atoms: O6_29  and  C19_30
REMARK   11  A    between atoms: C20_32  and  O11_45
REMARK   12  A    between atoms: C21_34  and  O10_44
REMARK   13  A    between atoms: C22_36  and  O9_43
REMARK   14  A    between atoms: C23_38  and  C24_41
REMARK   15  A    between atoms: C24_41  and  O8_42
REMARK                            x       y       z     vdW  Elec       q    Type
REMARK                         _______ _______ _______ _____ _____    ______ ____
ROOT
ATOM      9  C   UNL     1      47.984  16.657  17.928  0.00  0.00    +0.218 C 
ATOM     10  C   UNL     1      49.115  15.640  17.788  0.00  0.00    +0.042 C 
ATOM     11  C   UNL     1      50.477  16.133  17.441  0.00  0.00    -0.141 C 
ATOM     12  C   UNL     1      51.233  15.352  16.686  0.00  0.00    +0.252 C 
ATOM     13  O   UNL     1      50.863  14.156  16.184  0.00  0.00    -0.316 OA
ATOM     14  C   UNL     1      49.556  13.619  16.467  0.00  0.00    +0.372 C 
ATOM     31  C   UNL     1      48.621  14.802  16.573  0.00  0.00    +0.002 C 
ATOM     32  C   UNL     1      47.153  14.561  16.899  0.00  0.00    +0.015 C 
ATOM     36  O   UNL     1      46.203  15.539  16.453  0.00  0.00    -0.291 OA
ATOM     37  C   UNL     1      46.714  15.782  17.757  0.00  0.00    +0.155 C 
ENDROOT
BRANCH   9   8
ATOM      8  O   UNL     1      48.010  17.268  19.220  0.00  0.00    -0.333 OA
BRANCH   8   7
ATOM      7  C   UNL     1      47.859  18.609  19.267  0.00  0.00    +0.506 C 
ATOM     38  O   UNL     1      46.746  19.098  19.225  0.00  0.00    -0.507 OA
BRANCH   7   6
ATOM      5  C   UNL     1      49.864  19.537  18.328  0.00  0.00    +0.156 C 
ATOM      6  C   UNL     1      48.997  19.445  19.366  0.00  0.00    -0.079 C 
BRANCH   5   4
ATOM      3  C   UNL     1      51.587  20.758  19.594  0.00  0.00    +0.062 C 
ATOM      4  C   UNL     1      50.978  20.483  18.387  0.00  0.00    -0.096 C 
BRANCH   3   2
ATOM      1  C   UNL     1      52.976  22.269  20.807  0.00  0.00    +0.068 C 
ATOM      2  C   UNL     1      52.664  21.674  19.651  0.00  0.00    -0.031 C 
ENDBRANCH   3   2
BRANCH   4  39
ATOM     39  C   UNL     1      51.451  21.143  17.155  0.00  0.00    -0.001 C 
ATOM     40  C   UNL     1      51.781  20.413  16.096  0.00  0.00    +0.038 C 
ENDBRANCH   4  39
ENDBRANCH   5   4
ENDBRANCH   7   6
ENDBRANCH   8   7
ENDBRANCH   9   8
BRANCH  14  15
ATOM     15  O   UNL     1      49.140  12.752  15.410  0.00  0.00    -0.343 OA
BRANCH  15  16
ATOM     16  C   UNL     1      50.194  12.368  14.525  0.00  0.00    +0.301 C 
ATOM     17  C   UNL     1      50.235  10.842  14.413  0.00  0.00    +0.141 C 
ATOM     20  C   UNL     1      51.328  10.441  13.417  0.00  0.00    +0.165 C 
ATOM     23  C   UNL     1      51.047  11.115  12.069  0.00  0.00    +0.172 C 
ATOM     26  C   UNL     1      50.974  12.631  12.273  0.00  0.00    +0.197 C 
ATOM     30  O   UNL     1      49.960  12.933  13.233  0.00  0.00    -0.360 OA
BRANCH  17  18
ATOM     18  O   UNL     1      50.525  10.277  15.693  0.00  0.00    -0.554 OA
ATOM     19  H   UNL     1      49.986  10.635  16.412  0.00  0.00    +0.392 HD
ENDBRANCH  17  18
BRANCH  20  21
ATOM     21  O   UNL     1      52.602  10.862  13.907  0.00  0.00    -0.547 OA
ATOM     22  H   UNL     1      53.352  10.490  13.422  0.00  0.00    +0.388 HD
ENDBRANCH  20  21
BRANCH  23  24
ATOM     24  O   UNL     1      52.098  10.805  11.152  0.00  0.00    -0.542 OA
ATOM     25  H   UNL     1      52.905  11.320  11.290  0.00  0.00    +0.386 HD
ENDBRANCH  23  24
BRANCH  26  27
ATOM     27  C   UNL     1      50.635  13.307  10.943  0.00  0.00    +0.217 C 
BRANCH  27  28
ATOM     28  O   UNL     1      51.777  14.023  10.468  0.00  0.00    -0.563 OA
ATOM     29  H   UNL     1      51.582  14.644   9.752  0.00  0.00    +0.381 HD
ENDBRANCH  27  28
ENDBRANCH  26  27
ENDBRANCH  15  16
ENDBRANCH  14  15
BRANCH  32  33
ATOM     33  C   UNL     1      46.704  13.124  17.169  0.00  0.00    +0.252 C 
BRANCH  33  34
ATOM     34  O   UNL     1      46.202  12.547  15.962  0.00  0.00    -0.562 OA
ATOM     35  H   UNL     1      46.400  11.607  15.863  0.00  0.00    +0.387 HD
ENDBRANCH  33  34
ENDBRANCH  32  33
TORSDOF 15
ENDMDL
MODEL 3
REMARK VINA RESULT:      -6.0      1.466      2.831
REMARK  Name = ZINC95485899
REMARK  15 active torsions:
REMARK  status: ('A' for Active; 'I' for Inactive)
REMARK    1  A    between atoms: C2_2  and  C3_3
REMARK    2  A    between atoms: C4_4  and  C5_5
REMARK    3  A    between atoms: C4_4  and  C7_7
REMARK    4  A    between atoms: C8_8  and  C9_9
REMARK    5  A    between atoms: C9_9  and  O2_11
REMARK    6  A    between atoms: O2_11  and  C10_12
REMARK    7  A    between atoms: C14_19  and  O6_29
REMARK    8  A    between atoms: C16_23  and  C18_27
REMARK    9  A    between atoms: C18_27  and  O5_28
REMARK   10  A    between atoms: O6_29  and  C19_30
REMARK   11  A    between atoms: C20_32  and  O11_45
REMARK   12  A    between atoms: C21_34  and  O10_44
REMARK   13  A    between atoms: C22_36  and  O9_43
REMARK   14  A    between atoms: C23_38  and  C24_41
REMARK   15  A    between atoms: C24_41  and  O8_42
REMARK                            x       y       z     vdW  Elec       q    Type
REMARK                         _______ _______ _______ _____ _____    ______ ____
ROOT
ATOM      9  C   UNL     1      47.728  17.255  18.025  0.00  0.00    +0.218 C 
ATOM     10  C   UNL     1      47.856  16.047  17.100  0.00  0.00    +0.042 C 
ATOM     11  C   UNL     1      46.814  14.985  17.167  0.00  0.00    -0.141 C 
ATOM     12  C   UNL     1      47.201  13.738  16.952  0.00  0.00    +0.252 C 
ATOM     13  O   UNL     1      48.468  13.346  16.702  0.00  0.00    -0.316 OA
ATOM     14  C   UNL     1      49.531  14.316  16.633  0.00  0.00    +0.372 C 
ATOM     31  C   UNL     1      49.178  15.408  17.616  0.00  0.00    +0.002 C 
ATOM     32  C   UNL     1      50.104  16.608  17.756  0.00  0.00    +0.015 C 
ATOM     36  O   UNL     1      50.100  17.311  19.007  0.00  0.00    -0.291 OA
ATOM     37  C   UNL     1      49.174  17.818  18.056  0.00  0.00    +0.155 C 
ENDROOT
BRANCH   9   8
ATOM      8  O   UNL     1      46.820  18.216  17.481  0.00  0.00    -0.333 OA
BRANCH   8   7
ATOM      7  C   UNL     1      46.173  19.013  18.357  0.00  0.00    +0.506 C 
ATOM     38  O   UNL     1      46.804  19.710  19.127  0.00  0.00    -0.507 OA
BRANCH   7   6
ATOM      5  C   UNL     1      44.104  19.533  19.457  0.00  0.00    +0.156 C 
ATOM      6  C   UNL     1      44.757  19.037  18.378  0.00  0.00    -0.079 C 
BRANCH   5   4
ATOM      3  C   UNL     1      42.018  20.212  18.338  0.00  0.00    +0.062 C 
ATOM      4  C   UNL     1      42.646  19.660  19.435  0.00  0.00    -0.096 C 
BRANCH   3   2
ATOM      1  C   UNL     1      40.038  21.525  18.532  0.00  0.00    +0.068 C 
ATOM      2  C   UNL     1      40.609  20.335  18.317  0.00  0.00    -0.031 C 
ENDBRANCH   3   2
BRANCH   4  39
ATOM     39  C   UNL     1      41.848  19.199  20.587  0.00  0.00    -0.001 C 
ATOM     40  C   UNL     1      42.420  18.478  21.545  0.00  0.00    +0.038 C 
ENDBRANCH   4  39
ENDBRANCH   5   4
ENDBRANCH   7   6
ENDBRANCH   8   7
ENDBRANCH   9   8
BRANCH  14  15
ATOM     15  O   UNL     1      50.774  13.709  16.993  0.00  0.00    -0.343 OA
BRANCH  15  16
ATOM     16  C   UNL     1      51.404  12.997  15.926  0.00  0.00    +0.301 C 
ATOM     17  C   UNL     1      51.161  11.496  16.103  0.00  0.00    +0.141 C 
ATOM     20  C   UNL     1      51.787  10.744  14.923  0.00  0.00    +0.165 C 
ATOM     23  C   UNL     1      51.192  11.279  13.617  0.00  0.00    +0.172 C 
ATOM     26  C   UNL     1      51.433  12.789  13.538  0.00  0.00    +0.197 C 
ATOM     30  O   UNL     1      50.852  13.424  14.679  0.00  0.00    -0.360 OA
BRANCH  17  18
ATOM     18  O   UNL     1      51.760  11.055  17.323  0.00  0.00    -0.554 OA
ATOM     19  H   UNL     1      52.709  11.238  17.383  0.00  0.00    +0.392 HD
ENDBRANCH  17  18
BRANCH  20  21
ATOM     21  O   UNL     1      53.202  10.945  14.924  0.00  0.00    -0.547 OA
ATOM     22  H   UNL     1      53.481  11.772  15.341  0.00  0.00    +0.388 HD
ENDBRANCH  20  21
BRANCH  23  24
ATOM     24  O   UNL     1      51.820  10.635  12.507  0.00  0.00    -0.542 OA
ATOM     25  H   UNL     1      52.268   9.809  12.734  0.00  0.00    +0.386 HD
ENDBRANCH  23  24
BRANCH  26  27
ATOM     27  C   UNL     1      50.789  13.341  12.264  0.00  0.00    +0.217 C 
BRANCH  27  28
ATOM     28  O   UNL     1      51.804  13.600  11.291  0.00  0.00    -0.563 OA
ATOM     29  H   UNL     1      51.482  14.047  10.496  0.00  0.00    +0.381 HD
ENDBRANCH  27  28
ENDBRANCH  26  27
ENDBRANCH  15  16
ENDBRANCH  14  15
BRANCH  32  33
ATOM     33  C   UNL     1      51.328  16.682  16.841  0.00  0.00    +0.252 C 
BRANCH  33  34
ATOM     34  O   UNL     1      52.494  16.296  17.572  0.00  0.00    -0.562 OA
ATOM     35  H   UNL     1      52.585  15.341  17.692  0.00  0.00    +0.387 HD
ENDBRANCH  33  34
ENDBRANCH  32  33
TORSDOF 15
ENDMDL
MODEL 4
REMARK VINA RESULT:      -5.8      2.586      4.411
REMARK  Name = ZINC95485899
REMARK  15 active torsions:
REMARK  status: ('A' for Active; 'I' for Inactive)
REMARK    1  A    between atoms: C2_2  and  C3_3
REMARK    2  A    between atoms: C4_4  and  C5_5
REMARK    3  A    between atoms: C4_4  and  C7_7
REMARK    4  A    between atoms: C8_8  and  C9_9
REMARK    5  A    between atoms: C9_9  and  O2_11
REMARK    6  A    between atoms: O2_11  and  C10_12
REMARK    7  A    between atoms: C14_19  and  O6_29
REMARK    8  A    between atoms: C16_23  and  C18_27
REMARK    9  A    between atoms: C18_27  and  O5_28
REMARK   10  A    between atoms: O6_29  and  C19_30
REMARK   11  A    between atoms: C20_32  and  O11_45
REMARK   12  A    between atoms: C21_34  and  O10_44
REMARK   13  A    between atoms: C22_36  and  O9_43
REMARK   14  A    between atoms: C23_38  and  C24_41
REMARK   15  A    between atoms: C24_41  and  O8_42
REMARK                            x       y       z     vdW  Elec       q    Type
REMARK                         _______ _______ _______ _____ _____    ______ ____
ROOT
ATOM      9  C   UNL     1      47.235  17.908  19.105  0.00  0.00    +0.218 C 
ATOM     10  C   UNL     1      48.027  16.888  19.921  0.00  0.00    +0.042 C 
ATOM     11  C   UNL     1      49.453  17.179  20.233  0.00  0.00    -0.141 C 
ATOM     12  C   UNL     1      50.285  16.151  20.294  0.00  0.00    +0.252 C 
ATOM     13  O   UNL     1      49.951  14.863  20.071  0.00  0.00    -0.316 OA
ATOM     14  C   UNL     1      48.592  14.506  19.753  0.00  0.00    +0.372 C 
ATOM     31  C   UNL     1      48.020  15.662  18.964  0.00  0.00    +0.002 C 
ATOM     32  C   UNL     1      46.571  15.598  18.501  0.00  0.00    +0.015 C 
ATOM     36  O   UNL     1      46.210  16.354  17.335  0.00  0.00    -0.291 OA
ATOM     37  C   UNL     1      46.053  17.064  18.556  0.00  0.00    +0.155 C 
ENDROOT
BRANCH   9   8
ATOM      8  O   UNL     1      46.759  18.966  19.940  0.00  0.00    -0.333 OA
BRANCH   8   7
ATOM      7  C   UNL     1      47.155  20.218  19.629  0.00  0.00    +0.506 C 
ATOM     38  O   UNL     1      46.494  21.173  19.989  0.00  0.00    -0.507 OA
BRANCH   7   6
ATOM      5  C   UNL     1      49.461  20.873  19.502  0.00  0.00    +0.156 C 
ATOM      6  C   UNL     1      48.343  20.419  18.885  0.00  0.00    -0.079 C 
BRANCH   5   4
ATOM      3  C   UNL     1      50.740  20.714  17.405  0.00  0.00    +0.062 C 
ATOM      4  C   UNL     1      50.716  20.977  18.759  0.00  0.00    -0.096 C 
BRANCH   3   2
ATOM      1  C   UNL     1      52.275  19.883  15.781  0.00  0.00    +0.068 C 
ATOM      2  C   UNL     1      51.955  20.814  16.686  0.00  0.00    -0.031 C 
ENDBRANCH   3   2
BRANCH   4  39
ATOM     39  C   UNL     1      51.957  21.363  19.457  0.00  0.00    -0.001 C 
ATOM     40  C   UNL     1      52.334  20.711  20.551  0.00  0.00    +0.038 C 
ENDBRANCH   4  39
ENDBRANCH   5   4
ENDBRANCH   7   6
ENDBRANCH   8   7
ENDBRANCH   9   8
BRANCH  14  15
ATOM     15  O   UNL     1      48.567  13.311  18.970  0.00  0.00    -0.343 OA
BRANCH  15  16
ATOM     16  C   UNL     1      49.215  13.433  17.702  0.00  0.00    +0.301 C 
ATOM     17  C   UNL     1      50.468  12.555  17.684  0.00  0.00    +0.141 C 
ATOM     20  C   UNL     1      51.124  12.644  16.301  0.00  0.00    +0.165 C 
ATOM     23  C   UNL     1      50.104  12.226  15.237  0.00  0.00    +0.172 C 
ATOM     26  C   UNL     1      48.864  13.117  15.351  0.00  0.00    +0.197 C 
ATOM     30  O   UNL     1      48.322  13.011  16.669  0.00  0.00    -0.360 OA
BRANCH  17  18
ATOM     18  O   UNL     1      51.387  13.011  18.678  0.00  0.00    -0.554 OA
ATOM     19  H   UNL     1      52.299  13.089  18.364  0.00  0.00    +0.392 HD
ENDBRANCH  17  18
BRANCH  20  21
ATOM     21  O   UNL     1      51.547  13.987  16.058  0.00  0.00    -0.547 OA
ATOM     22  H   UNL     1      51.121  14.643  16.628  0.00  0.00    +0.388 HD
ENDBRANCH  20  21
BRANCH  23  24
ATOM     24  O   UNL     1      50.681  12.373  13.938  0.00  0.00    -0.542 OA
ATOM     25  H   UNL     1      51.513  11.894  13.822  0.00  0.00    +0.386 HD
ENDBRANCH  23  24
BRANCH  26  27
ATOM     27  C   UNL     1      47.817  12.666  14.331  0.00  0.00    +0.217 C 
BRANCH  27  28
ATOM     28  O   UNL     1      48.189  13.131  13.031  0.00  0.00    -0.563 OA
ATOM     29  H   UNL     1      47.666  12.747  12.312  0.00  0.00    +0.381 HD
ENDBRANCH  27  28
ENDBRANCH  26  27
ENDBRANCH  15  16
ENDBRANCH  14  15
BRANCH  32  33
ATOM     33  C   UNL     1      45.737  14.384  18.914  0.00  0.00    +0.252 C 
BRANCH  33  34
ATOM     34  O   UNL     1      45.730  13.427  17.854  0.00  0.00    -0.562 OA
ATOM     35  H   UNL     1      45.837  12.513  18.148  0.00  0.00    +0.387 HD
ENDBRANCH  33  34
ENDBRANCH  32  33
TORSDOF 15
ENDMDL
MODEL 5
REMARK VINA RESULT:      -5.8      3.402      5.476
REMARK  Name = ZINC95485899
REMARK  15 active torsions:
REMARK  status: ('A' for Active; 'I' for Inactive)
REMARK    1  A    between atoms: C2_2  and  C3_3
REMARK    2  A    between atoms: C4_4  and  C5_5
REMARK    3  A    between atoms: C4_4  and  C7_7
REMARK    4  A    between atoms: C8_8  and  C9_9
REMARK    5  A    between atoms: C9_9  and  O2_11
REMARK    6  A    between atoms: O2_11  and  C10_12
REMARK    7  A    between atoms: C14_19  and  O6_29
REMARK    8  A    between atoms: C16_23  and  C18_27
REMARK    9  A    between atoms: C18_27  and  O5_28
REMARK   10  A    between atoms: O6_29  and  C19_30
REMARK   11  A    between atoms: C20_32  and  O11_45
REMARK   12  A    between atoms: C21_34  and  O10_44
REMARK   13  A    between atoms: C22_36  and  O9_43
REMARK   14  A    between atoms: C23_38  and  C24_41
REMARK   15  A    between atoms: C24_41  and  O8_42
REMARK                            x       y       z     vdW  Elec       q    Type
REMARK                         _______ _______ _______ _____ _____    ______ ____
ROOT
ATOM      9  C   UNL     1      47.238  17.897  19.986  0.00  0.00    +0.218 C 
ATOM     10  C   UNL     1      48.374  16.919  20.278  0.00  0.00    +0.042 C 
ATOM     11  C   UNL     1      49.658  17.078  19.541  0.00  0.00    -0.141 C 
ATOM     12  C   UNL     1      50.332  15.977  19.246  0.00  0.00    +0.252 C 
ATOM     13  O   UNL     1      49.938  14.720  19.538  0.00  0.00    -0.316 OA
ATOM     14  C   UNL     1      48.701  14.487  20.239  0.00  0.00    +0.372 C 
ATOM     31  C   UNL     1      47.749  15.576  19.801  0.00  0.00    +0.002 C 
ATOM     32  C   UNL     1      46.349  15.621  20.398  0.00  0.00    +0.015 C 
ATOM     36  O   UNL     1      45.312  16.237  19.619  0.00  0.00    -0.291 OA
ATOM     37  C   UNL     1      45.988  17.130  20.495  0.00  0.00    +0.155 C 
ENDROOT
BRANCH   9   8
ATOM      8  O   UNL     1      47.418  19.114  20.713  0.00  0.00    -0.333 OA
BRANCH   8   7
ATOM      7  C   UNL     1      47.459  20.256  19.996  0.00  0.00    +0.506 C 
ATOM     38  O   UNL     1      46.561  21.070  20.094  0.00  0.00    -0.507 OA
BRANCH   7   6
ATOM      5  C   UNL     1      49.787  20.725  19.642  0.00  0.00    +0.156 C 
ATOM      6  C   UNL     1      48.551  20.508  19.129  0.00  0.00    -0.079 C 
BRANCH   5   4
ATOM      3  C   UNL     1      50.741  20.933  17.382  0.00  0.00    +0.062 C 
ATOM      4  C   UNL     1      50.934  20.875  18.746  0.00  0.00    -0.096 C 
BRANCH   3   2
ATOM      1  C   UNL     1      52.257  20.045  15.771  0.00  0.00    +0.068 C 
ATOM      2  C   UNL     1      51.850  21.078  16.516  0.00  0.00    -0.031 C 
ENDBRANCH   3   2
BRANCH   4  39
ATOM     39  C   UNL     1      52.297  20.966  19.303  0.00  0.00    -0.001 C 
ATOM     40  C   UNL     1      52.595  21.919  20.178  0.00  0.00    +0.038 C 
ENDBRANCH   4  39
ENDBRANCH   5   4
ENDBRANCH   7   6
ENDBRANCH   8   7
ENDBRANCH   9   8
BRANCH  14  15
ATOM     15  O   UNL     1      48.176  13.203  19.898  0.00  0.00    -0.343 OA
BRANCH  15  16
ATOM     16  C   UNL     1      47.798  13.076  18.526  0.00  0.00    +0.301 C 
ATOM     17  C   UNL     1      48.648  11.990  17.861  0.00  0.00    +0.141 C 
ATOM     20  C   UNL     1      48.196  11.818  16.407  0.00  0.00    +0.165 C 
ATOM     23  C   UNL     1      46.701  11.480  16.386  0.00  0.00    +0.172 C 
ATOM     26  C   UNL     1      45.927  12.585  17.109  0.00  0.00    +0.197 C 
ATOM     30  O   UNL     1      46.418  12.714  18.445  0.00  0.00    -0.360 OA
BRANCH  17  18
ATOM     18  O   UNL     1      50.024  12.376  17.890  0.00  0.00    -0.554 OA
ATOM     19  H   UNL     1      50.425  12.332  18.770  0.00  0.00    +0.392 HD
ENDBRANCH  17  18
BRANCH  20  21
ATOM     21  O   UNL     1      48.423  13.031  15.688  0.00  0.00    -0.547 OA
ATOM     22  H   UNL     1      47.667  13.634  15.685  0.00  0.00    +0.388 HD
ENDBRANCH  20  21
BRANCH  23  24
ATOM     24  O   UNL     1      46.252  11.387  15.033  0.00  0.00    -0.542 OA
ATOM     25  H   UNL     1      46.287  12.223  14.549  0.00  0.00    +0.386 HD
ENDBRANCH  23  24
BRANCH  26  27
ATOM     27  C   UNL     1      44.440  12.226  17.144  0.00  0.00    +0.217 C 
BRANCH  27  28
ATOM     28  O   UNL     1      43.874  12.663  18.381  0.00  0.00    -0.563 OA
ATOM     29  H   UNL     1      42.907  12.709  18.377  0.00  0.00    +0.381 HD
ENDBRANCH  27  28
ENDBRANCH  26  27
ENDBRANCH  15  16
ENDBRANCH  14  15
BRANCH  32  33
ATOM     33  C   UNL     1      45.991  14.589  21.469  0.00  0.00    +0.252 C 
BRANCH  33  34
ATOM     34  O   UNL     1      45.247  13.523  20.874  0.00  0.00    -0.562 OA
ATOM     35  H   UNL     1      44.319  13.494  21.142  0.00  0.00    +0.387 HD
ENDBRANCH  33  34
ENDBRANCH  32  33
TORSDOF 15
ENDMDL
MODEL 6
REMARK VINA RESULT:      -5.8      2.267      3.665
REMARK  Name = ZINC95485899
REMARK  15 active torsions:
REMARK  status: ('A' for Active; 'I' for Inactive)
REMARK    1  A    between atoms: C2_2  and  C3_3
REMARK    2  A    between atoms: C4_4  and  C5_5
REMARK    3  A    between atoms: C4_4  and  C7_7
REMARK    4  A    between atoms: C8_8  and  C9_9
REMARK    5  A    between atoms: C9_9  and  O2_11
REMARK    6  A    between atoms: O2_11  and  C10_12
REMARK    7  A    between atoms: C14_19  and  O6_29
REMARK    8  A    between atoms: C16_23  and  C18_27
REMARK    9  A    between atoms: C18_27  and  O5_28
REMARK   10  A    between atoms: O6_29  and  C19_30
REMARK   11  A    between atoms: C20_32  and  O11_45
REMARK   12  A    between atoms: C21_34  and  O10_44
REMARK   13  A    between atoms: C22_36  and  O9_43
REMARK   14  A    between atoms: C23_38  and  C24_41
REMARK   15  A    between atoms: C24_41  and  O8_42
REMARK                            x       y       z     vdW  Elec       q    Type
REMARK                         _______ _______ _______ _____ _____    ______ ____
ROOT
ATOM      9  C   UNL     1      45.576  14.026  19.116  0.00  0.00    +0.218 C 
ATOM     10  C   UNL     1      46.992  14.080  18.546  0.00  0.00    +0.042 C 
ATOM     11  C   UNL     1      47.674  15.401  18.457  0.00  0.00    -0.141 C 
ATOM     12  C   UNL     1      48.497  15.594  17.438  0.00  0.00    +0.252 C 
ATOM     13  O   UNL     1      48.749  14.700  16.459  0.00  0.00    -0.316 OA
ATOM     14  C   UNL     1      48.118  13.405  16.473  0.00  0.00    +0.372 C 
ATOM     31  C   UNL     1      46.750  13.603  17.085  0.00  0.00    +0.002 C 
ATOM     32  C   UNL     1      45.837  12.398  17.266  0.00  0.00    +0.015 C 
ATOM     36  O   UNL     1      44.422  12.632  17.293  0.00  0.00    -0.291 OA
ATOM     37  C   UNL     1      45.040  12.674  18.572  0.00  0.00    +0.155 C 
ENDROOT
BRANCH   9   8
ATOM      8  O   UNL     1      45.604  14.023  20.545  0.00  0.00    -0.333 OA
BRANCH   8   7
ATOM      7  C   UNL     1      45.527  15.221  21.162  0.00  0.00    +0.506 C 
ATOM     38  O   UNL     1      46.147  15.418  22.189  0.00  0.00    -0.507 OA
BRANCH   7   6
ATOM      5  C   UNL     1      45.241  17.491  20.434  0.00  0.00    +0.156 C 
ATOM      6  C   UNL     1      44.725  16.250  20.611  0.00  0.00    -0.079 C 
BRANCH   5   4
ATOM      3  C   UNL     1      43.219  18.886  20.270  0.00  0.00    +0.062 C 
ATOM      4  C   UNL     1      44.450  18.523  19.764  0.00  0.00    -0.096 C 
BRANCH   3   2
ATOM      1  C   UNL     1      41.203  19.620  19.230  0.00  0.00    +0.068 C 
ATOM      2  C   UNL     1      42.454  19.884  19.622  0.00  0.00    -0.031 C 
ENDBRANCH   3   2
BRANCH   4  39
ATOM     39  C   UNL     1      44.970  19.178  18.548  0.00  0.00    -0.001 C 
ATOM     40  C   UNL     1      46.071  18.717  17.966  0.00  0.00    +0.038 C 
ENDBRANCH   4  39
ENDBRANCH   5   4
ENDBRANCH   7   6
ENDBRANCH   8   7
ENDBRANCH   9   8
BRANCH  14  15
ATOM     15  O   UNL     1      47.996  12.904  15.140  0.00  0.00    -0.343 OA
BRANCH  15  16
ATOM     16  C   UNL     1      49.080  12.066  14.733  0.00  0.00    +0.301 C 
ATOM     17  C   UNL     1      49.959  12.821  13.733  0.00  0.00    +0.141 C 
ATOM     20  C   UNL     1      51.152  11.940  13.347  0.00  0.00    +0.165 C 
ATOM     23  C   UNL     1      51.917  11.551  14.617  0.00  0.00    +0.172 C 
ATOM     26  C   UNL     1      50.961  10.847  15.583  0.00  0.00    +0.197 C 
ATOM     30  O   UNL     1      49.860  11.709  15.876  0.00  0.00    -0.360 OA
BRANCH  17  18
ATOM     18  O   UNL     1      49.197  13.131  12.564  0.00  0.00    -0.554 OA
ATOM     19  H   UNL     1      49.361  12.535  11.820  0.00  0.00    +0.392 HD
ENDBRANCH  17  18
BRANCH  20  21
ATOM     21  O   UNL     1      50.684  10.760  12.691  0.00  0.00    -0.547 OA
ATOM     22  H   UNL     1      51.125  10.577  11.850  0.00  0.00    +0.388 HD
ENDBRANCH  20  21
BRANCH  23  24
ATOM     24  O   UNL     1      52.990  10.671  14.278  0.00  0.00    -0.542 OA
ATOM     25  H   UNL     1      52.702   9.819  13.924  0.00  0.00    +0.386 HD
ENDBRANCH  23  24
BRANCH  26  27
ATOM     27  C   UNL     1      51.704  10.509  16.878  0.00  0.00    +0.217 C 
BRANCH  27  28
ATOM     28  O   UNL     1      52.789  11.422  17.056  0.00  0.00    -0.563 OA
ATOM     29  H   UNL     1      52.551  12.228  17.535  0.00  0.00    +0.381 HD
ENDBRANCH  27  28
ENDBRANCH  26  27
ENDBRANCH  15  16
ENDBRANCH  14  15
BRANCH  32  33
ATOM     33  C   UNL     1      46.379  11.022  16.874  0.00  0.00    +0.252 C 
BRANCH  33  34
ATOM     34  O   UNL     1      45.937  10.694  15.555  0.00  0.00    -0.562 OA
ATOM     35  H   UNL     1      45.827   9.746  15.401  0.00  0.00    +0.387 HD
ENDBRANCH  33  34
ENDBRANCH  32  33
TORSDOF 15
ENDMDL
MODEL 7
REMARK VINA RESULT:      -5.8      3.298     10.283
REMARK  Name = ZINC95485899
REMARK  15 active torsions:
REMARK  status: ('A' for Active; 'I' for Inactive)
REMARK    1  A    between atoms: C2_2  and  C3_3
REMARK    2  A    between atoms: C4_4  and  C5_5
REMARK    3  A    between atoms: C4_4  and  C7_7
REMARK    4  A    between atoms: C8_8  and  C9_9
REMARK    5  A    between atoms: C9_9  and  O2_11
REMARK    6  A    between atoms: O2_11  and  C10_12
REMARK    7  A    between atoms: C14_19  and  O6_29
REMARK    8  A    between atoms: C16_23  and  C18_27
REMARK    9  A    between atoms: C18_27  and  O5_28
REMARK   10  A    between atoms: O6_29  and  C19_30
REMARK   11  A    between atoms: C20_32  and  O11_45
REMARK   12  A    between atoms: C21_34  and  O10_44
REMARK   13  A    between atoms: C22_36  and  O9_43
REMARK   14  A    between atoms: C23_38  and  C24_41
REMARK   15  A    between atoms: C24_41  and  O8_42
REMARK                            x       y       z     vdW  Elec       q    Type
REMARK                         _______ _______ _______ _____ _____    ______ ____
ROOT
ATOM      9  C   UNL     1      46.705  13.935  18.341  0.00  0.00    +0.218 C 
ATOM     10  C   UNL     1      46.158  15.291  17.898  0.00  0.00    +0.042 C 
ATOM     11  C   UNL     1      46.817  15.987  16.760  0.00  0.00    -0.141 C 
ATOM     12  C   UNL     1      46.856  17.310  16.795  0.00  0.00    +0.252 C 
ATOM     13  O   UNL     1      46.370  18.079  17.792  0.00  0.00    -0.316 OA
ATOM     14  C   UNL     1      45.728  17.475  18.932  0.00  0.00    +0.372 C 
ATOM     31  C   UNL     1      46.426  16.154  19.165  0.00  0.00    +0.002 C 
ATOM     32  C   UNL     1      45.950  15.255  20.298  0.00  0.00    +0.015 C 
ATOM     36  O   UNL     1      46.901  14.344  20.869  0.00  0.00    -0.291 OA
ATOM     37  C   UNL     1      46.157  13.800  19.787  0.00  0.00    +0.155 C 
ENDROOT
BRANCH   9   8
ATOM      8  O   UNL     1      46.201  12.889  17.507  0.00  0.00    -0.333 OA
BRANCH   8   7
ATOM      7  C   UNL     1      47.076  11.936  17.124  0.00  0.00    +0.506 C 
ATOM     38  O   UNL     1      47.121  10.876  17.719  0.00  0.00    -0.507 OA
BRANCH   7   6
ATOM      5  C   UNL     1      49.249  11.825  16.110  0.00  0.00    +0.156 C 
ATOM      6  C   UNL     1      47.940  12.169  16.027  0.00  0.00    -0.079 C 
BRANCH   5   4
ATOM      3  C   UNL     1      49.765  12.818  13.917  0.00  0.00    +0.062 C 
ATOM      4  C   UNL     1      50.117  11.964  14.941  0.00  0.00    -0.096 C 
BRANCH   3   2
ATOM      1  C   UNL     1      50.081  13.278  11.599  0.00  0.00    +0.068 C 
ATOM      2  C   UNL     1      50.604  12.952  12.786  0.00  0.00    -0.031 C 
ENDBRANCH   3   2
BRANCH   4  39
ATOM     39  C   UNL     1      51.371  11.190  14.857  0.00  0.00    -0.001 C 
ATOM     40  C   UNL     1      52.338  11.396  15.743  0.00  0.00    +0.038 C 
ENDBRANCH   4  39
ENDBRANCH   5   4
ENDBRANCH   7   6
ENDBRANCH   8   7
ENDBRANCH   9   8
BRANCH  14  15
ATOM     15  O   UNL     1      45.867  18.317  20.078  0.00  0.00    -0.343 OA
BRANCH  15  16
ATOM     16  C   UNL     1      44.798  19.251  20.245  0.00  0.00    +0.301 C 
ATOM     17  C   UNL     1      44.600  20.038  18.948  0.00  0.00    +0.141 C 
ATOM     20  C   UNL     1      43.414  20.994  19.115  0.00  0.00    +0.165 C 
ATOM     23  C   UNL     1      42.171  20.184  19.500  0.00  0.00    +0.172 C 
ATOM     26  C   UNL     1      42.464  19.391  20.776  0.00  0.00    +0.197 C 
ATOM     30  O   UNL     1      43.596  18.546  20.561  0.00  0.00    -0.360 OA
BRANCH  17  18
ATOM     18  O   UNL     1      45.781  20.789  18.659  0.00  0.00    -0.554 OA
ATOM     19  H   UNL     1      45.610  21.649  18.251  0.00  0.00    +0.392 HD
ENDBRANCH  17  18
BRANCH  20  21
ATOM     21  O   UNL     1      43.705  21.942  20.143  0.00  0.00    -0.547 OA
ATOM     22  H   UNL     1      43.676  22.863  19.848  0.00  0.00    +0.388 HD
ENDBRANCH  20  21
BRANCH  23  24
ATOM     24  O   UNL     1      41.075  21.072  19.728  0.00  0.00    -0.542 OA
ATOM     25  H   UNL     1      41.085  21.493  20.599  0.00  0.00    +0.386 HD
ENDBRANCH  23  24
BRANCH  26  27
ATOM     27  C   UNL     1      41.247  18.534  21.133  0.00  0.00    +0.217 C 
BRANCH  27  28
ATOM     28  O   UNL     1      40.327  19.312  21.903  0.00  0.00    -0.563 OA
ATOM     29  H   UNL     1      40.016  18.870  22.706  0.00  0.00    +0.381 HD
ENDBRANCH  27  28
ENDBRANCH  26  27
ENDBRANCH  15  16
ENDBRANCH  14  15
BRANCH  32  33
ATOM     33  C   UNL     1      44.738  15.707  21.114  0.00  0.00    +0.252 C 
BRANCH  33  34
ATOM     34  O   UNL     1      45.180  16.424  22.268  0.00  0.00    -0.562 OA
ATOM     35  H   UNL     1      45.762  17.169  22.069  0.00  0.00    +0.387 HD
ENDBRANCH  33  34
ENDBRANCH  32  33
TORSDOF 15
ENDMDL
MODEL 8
REMARK VINA RESULT:      -5.8      1.498      2.806
REMARK  Name = ZINC95485899
REMARK  15 active torsions:
REMARK  status: ('A' for Active; 'I' for Inactive)
REMARK    1  A    between atoms: C2_2  and  C3_3
REMARK    2  A    between atoms: C4_4  and  C5_5
REMARK    3  A    between atoms: C4_4  and  C7_7
REMARK    4  A    between atoms: C8_8  and  C9_9
REMARK    5  A    between atoms: C9_9  and  O2_11
REMARK    6  A    between atoms: O2_11  and  C10_12
REMARK    7  A    between atoms: C14_19  and  O6_29
REMARK    8  A    between atoms: C16_23  and  C18_27
REMARK    9  A    between atoms: C18_27  and  O5_28
REMARK   10  A    between atoms: O6_29  and  C19_30
REMARK   11  A    between atoms: C20_32  and  O11_45
REMARK   12  A    between atoms: C21_34  and  O10_44
REMARK   13  A    between atoms: C22_36  and  O9_43
REMARK   14  A    between atoms: C23_38  and  C24_41
REMARK   15  A    between atoms: C24_41  and  O8_42
REMARK                            x       y       z     vdW  Elec       q    Type
REMARK                         _______ _______ _______ _____ _____    ______ ____
ROOT
ATOM      9  C   UNL     1      48.862  18.247  19.015  0.00  0.00    +0.218 C 
ATOM     10  C   UNL     1      48.394  17.451  17.798  0.00  0.00    +0.042 C 
ATOM     11  C   UNL     1      46.968  17.555  17.385  0.00  0.00    -0.141 C 
ATOM     12  C   UNL     1      46.405  16.476  16.864  0.00  0.00    +0.252 C 
ATOM     13  O   UNL     1      47.010  15.282  16.700  0.00  0.00    -0.316 OA
ATOM     14  C   UNL     1      48.386  15.102  17.087  0.00  0.00    +0.372 C 
ATOM     31  C   UNL     1      48.611  15.990  18.290  0.00  0.00    +0.002 C 
ATOM     32  C   UNL     1      49.995  16.045  18.922  0.00  0.00    +0.015 C 
ATOM     36  O   UNL     1      50.079  16.393  20.312  0.00  0.00    -0.291 OA
ATOM     37  C   UNL     1      50.161  17.505  19.430  0.00  0.00    +0.155 C 
ENDROOT
BRANCH   9   8
ATOM      8  O   UNL     1      49.144  19.601  18.656  0.00  0.00    -0.333 OA
BRANCH   8   7
ATOM      7  C   UNL     1      48.819  20.554  19.556  0.00  0.00    +0.506 C 
ATOM     38  O   UNL     1      49.694  21.194  20.107  0.00  0.00    -0.507 OA
BRANCH   7   6
ATOM      5  C   UNL     1      46.545  20.875  18.858  0.00  0.00    +0.156 C 
ATOM      6  C   UNL     1      47.460  20.808  19.857  0.00  0.00    -0.079 C 
BRANCH   5   4
ATOM      3  C   UNL     1      44.212  20.101  18.720  0.00  0.00    +0.062 C 
ATOM      4  C   UNL     1      45.125  21.028  19.176  0.00  0.00    -0.096 C 
BRANCH   3   2
ATOM      1  C   UNL     1      42.226  19.352  19.806  0.00  0.00    +0.068 C 
ATOM      2  C   UNL     1      42.839  20.249  19.026  0.00  0.00    -0.031 C 
ENDBRANCH   3   2
BRANCH   4  39
ATOM     39  C   UNL     1      44.670  22.175  19.984  0.00  0.00    -0.001 C 
ATOM     40  C   UNL     1      44.719  23.403  19.481  0.00  0.00    +0.038 C 
ENDBRANCH   4  39
ENDBRANCH   5   4
ENDBRANCH   7   6
ENDBRANCH   8   7
ENDBRANCH   9   8
BRANCH  14  15
ATOM     15  O   UNL     1      48.626  13.735  17.429  0.00  0.00    -0.343 OA
BRANCH  15  16
ATOM     16  C   UNL     1      49.030  12.923  16.325  0.00  0.00    +0.301 C 
ATOM     17  C   UNL     1      47.998  13.041  15.201  0.00  0.00    +0.141 C 
ATOM     20  C   UNL     1      48.468  12.215  13.999  0.00  0.00    +0.165 C 
ATOM     23  C   UNL     1      49.856  12.703  13.569  0.00  0.00    +0.172 C 
ATOM     26  C   UNL     1      50.815  12.599  14.757  0.00  0.00    +0.197 C 
ATOM     30  O   UNL     1      50.303  13.364  15.850  0.00  0.00    -0.360 OA
BRANCH  17  18
ATOM     18  O   UNL     1      46.737  12.547  15.655  0.00  0.00    -0.554 OA
ATOM     19  H   UNL     1      46.205  12.130  14.962  0.00  0.00    +0.392 HD
ENDBRANCH  17  18
BRANCH  20  21
ATOM     21  O   UNL     1      48.538  10.835  14.364  0.00  0.00    -0.547 OA
ATOM     22  H   UNL     1      49.371  10.582  14.785  0.00  0.00    +0.388 HD
ENDBRANCH  20  21
BRANCH  23  24
ATOM     24  O   UNL     1      50.335  11.894  12.494  0.00  0.00    -0.542 OA
ATOM     25  H   UNL     1      49.701  11.231  12.188  0.00  0.00    +0.386 HD
ENDBRANCH  23  24
BRANCH  26  27
ATOM     27  C   UNL     1      52.187  13.141  14.353  0.00  0.00    +0.217 C 
BRANCH  27  28
ATOM     28  O   UNL     1      52.068  13.875  13.132  0.00  0.00    -0.563 OA
ATOM     29  H   UNL     1      51.199  13.801  12.712  0.00  0.00    +0.381 HD
ENDBRANCH  27  28
ENDBRANCH  26  27
ENDBRANCH  15  16
ENDBRANCH  14  15
BRANCH  32  33
ATOM     33  C   UNL     1      51.117  15.238  18.266  0.00  0.00    +0.252 C 
BRANCH  33  34
ATOM     34  O   UNL     1      51.193  13.946  18.872  0.00  0.00    -0.562 OA
ATOM     35  H   UNL     1      51.322  13.224  18.243  0.00  0.00    +0.387 HD
ENDBRANCH  33  34
ENDBRANCH  32  33
TORSDOF 15
ENDMDL
MODEL 9
REMARK VINA RESULT:      -5.6      3.636      9.972
REMARK  Name = ZINC95485899
REMARK  15 active torsions:
REMARK  status: ('A' for Active; 'I' for Inactive)
REMARK    1  A    between atoms: C2_2  and  C3_3
REMARK    2  A    between atoms: C4_4  and  C5_5
REMARK    3  A    between atoms: C4_4  and  C7_7
REMARK    4  A    between atoms: C8_8  and  C9_9
REMARK    5  A    between atoms: C9_9  and  O2_11
REMARK    6  A    between atoms: O2_11  and  C10_12
REMARK    7  A    between atoms: C14_19  and  O6_29
REMARK    8  A    between atoms: C16_23  and  C18_27
REMARK    9  A    between atoms: C18_27  and  O5_28
REMARK   10  A    between atoms: O6_29  and  C19_30
REMARK   11  A    between atoms: C20_32  and  O11_45
REMARK   12  A    between atoms: C21_34  and  O10_44
REMARK   13  A    between atoms: C22_36  and  O9_43
REMARK   14  A    between atoms: C23_38  and  C24_41
REMARK   15  A    between atoms: C24_41  and  O8_42
REMARK                            x       y       z     vdW  Elec       q    Type
REMARK                         _______ _______ _______ _____ _____    ______ ____
ROOT
ATOM      9  C   UNL     1      48.774  18.396  19.027  0.00  0.00    +0.218 C 
ATOM     10  C   UNL     1      47.591  17.663  19.658  0.00  0.00    +0.042 C 
ATOM     11  C   UNL     1      46.789  16.741  18.808  0.00  0.00    -0.141 C 
ATOM     12  C   UNL     1      45.493  16.654  19.059  0.00  0.00    +0.252 C 
ATOM     13  O   UNL     1      44.833  17.351  20.007  0.00  0.00    -0.316 OA
ATOM     14  C   UNL     1      45.541  18.271  20.861  0.00  0.00    +0.372 C 
ATOM     31  C   UNL     1      46.659  18.853  20.028  0.00  0.00    +0.002 C 
ATOM     32  C   UNL     1      47.617  19.851  20.666  0.00  0.00    +0.015 C 
ATOM     36  O   UNL     1      48.271  20.792  19.803  0.00  0.00    -0.291 OA
ATOM     37  C   UNL     1      48.997  19.586  19.999  0.00  0.00    +0.155 C 
ENDROOT
BRANCH   9   8
ATOM      8  O   UNL     1      49.927  17.553  18.985  0.00  0.00    -0.333 OA
BRANCH   8   7
ATOM      7  C   UNL     1      50.633  17.537  17.834  0.00  0.00    +0.506 C 
ATOM     38  O   UNL     1      51.351  18.476  17.548  0.00  0.00    -0.507 OA
BRANCH   7   6
ATOM      5  C   UNL     1      49.960  15.277  17.388  0.00  0.00    +0.156 C 
ATOM      6  C   UNL     1      50.538  16.427  16.961  0.00  0.00    -0.079 C 
BRANCH   5   4
ATOM      3  C   UNL     1      50.839  13.640  15.773  0.00  0.00    +0.062 C 
ATOM      4  C   UNL     1      49.763  14.168  16.455  0.00  0.00    -0.096 C 
BRANCH   3   2
ATOM      1  C   UNL     1      50.910  12.733  13.569  0.00  0.00    +0.068 C 
ATOM      2  C   UNL     1      50.648  12.568  14.870  0.00  0.00    -0.031 C 
ENDBRANCH   3   2
BRANCH   4  39
ATOM     39  C   UNL     1      48.412  13.613  16.243  0.00  0.00    -0.001 C 
ATOM     40  C   UNL     1      47.590  13.455  17.275  0.00  0.00    +0.038 C 
ENDBRANCH   4  39
ENDBRANCH   5   4
ENDBRANCH   7   6
ENDBRANCH   8   7
ENDBRANCH   9   8
BRANCH  14  15
ATOM     15  O   UNL     1      44.662  19.307  21.304  0.00  0.00    -0.343 OA
BRANCH  15  16
ATOM     16  C   UNL     1      44.090  20.076  20.244  0.00  0.00    +0.301 C 
ATOM     17  C   UNL     1      42.564  19.955  20.293  0.00  0.00    +0.141 C 
ATOM     20  C   UNL     1      41.956  20.830  19.192  0.00  0.00    +0.165 C 
ATOM     23  C   UNL     1      42.432  22.275  19.381  0.00  0.00    +0.172 C 
ATOM     26  C   UNL     1      43.962  22.304  19.368  0.00  0.00    +0.197 C 
ATOM     30  O   UNL     1      44.463  21.447  20.396  0.00  0.00    -0.360 OA
BRANCH  17  18
ATOM     18  O   UNL     1      42.185  18.593  20.085  0.00  0.00    -0.554 OA
ATOM     19  H   UNL     1      41.682  18.210  20.817  0.00  0.00    +0.392 HD
ENDBRANCH  17  18
BRANCH  20  21
ATOM     21  O   UNL     1      42.375  20.351  17.913  0.00  0.00    -0.547 OA
ATOM     22  H   UNL     1      42.334  21.016  17.211  0.00  0.00    +0.388 HD
ENDBRANCH  20  21
BRANCH  23  24
ATOM     24  O   UNL     1      41.927  23.086  18.319  0.00  0.00    -0.542 OA
ATOM     25  H   UNL     1      42.186  22.785  17.437  0.00  0.00    +0.386 HD
ENDBRANCH  23  24
BRANCH  26  27
ATOM     27  C   UNL     1      44.445  23.735  19.616  0.00  0.00    +0.217 C 
BRANCH  27  28
ATOM     28  O   UNL     1      44.309  24.498  18.415  0.00  0.00    -0.563 OA
ATOM     29  H   UNL     1      45.005  25.159  18.289  0.00  0.00    +0.381 HD
ENDBRANCH  27  28
ENDBRANCH  26  27
ENDBRANCH  15  16
ENDBRANCH  14  15
BRANCH  32  33
ATOM     33  C   UNL     1      47.437  20.171  22.151  0.00  0.00    +0.252 C 
BRANCH  33  34
ATOM     34  O   UNL     1      46.663  21.364  22.291  0.00  0.00    -0.562 OA
ATOM     35  H   UNL     1      47.162  22.177  22.138  0.00  0.00    +0.387 HD
ENDBRANCH  33  34
ENDBRANCH  32  33
TORSDOF 15
ENDMDL
