MODEL 1
REMARK VINA RESULT:      -5.6      0.000      0.000
REMARK  Name = ZINC95485883
REMARK  3 active torsions:
REMARK  status: ('A' for Active; 'I' for Inactive)
REMARK    1  A    between atoms: C1_1  and  O1_2
REMARK    2  A    between atoms: O1_2  and  C2_3
REMARK    3  A    between atoms: C14_17  and  O4_18
REMARK                            x       y       z     vdW  Elec       q    Type
REMARK                         _______ _______ _______ _____ _____    ______ ____
ROOT
ATOM      3  C   UNL     1      43.173  20.511  19.568  0.00  0.00    +0.197 A 
ATOM      4  C   UNL     1      42.758  19.762  20.667  0.00  0.00    -0.094 A 
ATOM      5  C   UNL     1      43.288  18.524  20.894  0.00  0.00    +0.161 A 
ATOM      6  C   UNL     1      44.249  18.011  20.021  0.00  0.00    -0.268 A 
ATOM      7  C   UNL     1      44.682  18.760  18.914  0.00  0.00    +0.201 A 
ATOM      8  O   UNL     1      45.623  18.284  18.075  0.00  0.00    -0.217 OA
ATOM      9  C   UNL     1      45.965  16.980  18.054  0.00  0.00    +0.130 A 
ATOM     10  C   UNL     1      45.608  16.120  19.101  0.00  0.00    -0.211 A 
ATOM     11  C   UNL     1      45.976  14.775  19.070  0.00  0.00    +0.108 A 
ATOM     12  C   UNL     1      46.691  14.288  17.998  0.00  0.00    +0.011 A 
ATOM     13  C   UNL     1      47.046  15.131  16.955  0.00  0.00    +0.067 A 
ATOM     14  C   UNL     1      46.689  16.467  16.976  0.00  0.00    +0.086 A 
ATOM     17  C   UNL     1      44.833  16.672  20.234  0.00  0.00    +0.444 A 
ATOM     18  O   UNL     1      44.685  16.060  21.276  0.00  0.00    -0.446 OA
ATOM     19  C   UNL     1      44.124  20.014  18.692  0.00  0.00    -0.032 A 
ENDROOT
BRANCH   3   2
ATOM      1  C   UNL     1      41.327  21.782  18.777  0.00  0.00    +0.255 C 
ATOM      2  O   UNL     1      42.635  21.738  19.351  0.00  0.00    -0.306 OA
ENDBRANCH   3   2
BRANCH  14  15
ATOM     15  O   UNL     1      47.045  17.281  15.946  0.00  0.00    -0.481 OA
ATOM     16  H   UNL     1      47.866  17.769  16.096  0.00  0.00    +0.394 HD
ENDBRANCH  14  15
TORSDOF 2
ENDMDL
MODEL 2
REMARK VINA RESULT:      -5.6      3.696      5.895
REMARK  Name = ZINC95485883
REMARK  3 active torsions:
REMARK  status: ('A' for Active; 'I' for Inactive)
REMARK    1  A    between atoms: C1_1  and  O1_2
REMARK    2  A    between atoms: O1_2  and  C2_3
REMARK    3  A    between atoms: C14_17  and  O4_18
REMARK                            x       y       z     vdW  Elec       q    Type
REMARK                         _______ _______ _______ _____ _____    ______ ____
ROOT
ATOM      3  C   UNL     1      46.869  21.590  21.852  0.00  0.00    +0.197 A 
ATOM      4  C   UNL     1      46.713  20.251  22.202  0.00  0.00    -0.094 A 
ATOM      5  C   UNL     1      45.663  19.530  21.710  0.00  0.00    +0.161 A 
ATOM      6  C   UNL     1      44.746  20.140  20.854  0.00  0.00    -0.268 A 
ATOM      7  C   UNL     1      44.897  21.488  20.486  0.00  0.00    +0.201 A 
ATOM      8  O   UNL     1      44.028  22.083  19.644  0.00  0.00    -0.217 OA
ATOM      9  C   UNL     1      42.825  21.543  19.363  0.00  0.00    +0.130 A 
ATOM     10  C   UNL     1      42.542  20.204  19.665  0.00  0.00    -0.211 A 
ATOM     11  C   UNL     1      41.296  19.657  19.362  0.00  0.00    +0.108 A 
ATOM     12  C   UNL     1      40.333  20.443  18.766  0.00  0.00    +0.011 A 
ATOM     13  C   UNL     1      40.603  21.770  18.467  0.00  0.00    +0.067 A 
ATOM     14  C   UNL     1      41.835  22.323  18.760  0.00  0.00    +0.086 A 
ATOM     17  C   UNL     1      43.594  19.390  20.313  0.00  0.00    +0.444 A 
ATOM     18  O   UNL     1      43.514  18.178  20.396  0.00  0.00    -0.446 OA
ATOM     19  C   UNL     1      45.966  22.209  21.005  0.00  0.00    -0.032 A 
ENDROOT
BRANCH   3   2
ATOM      1  C   UNL     1      49.156  21.605  22.500  0.00  0.00    +0.255 C 
ATOM      2  O   UNL     1      47.915  22.298  22.352  0.00  0.00    -0.306 OA
ENDBRANCH   3   2
BRANCH  14  15
ATOM     15  O   UNL     1      42.084  23.625  18.460  0.00  0.00    -0.481 OA
ATOM     16  H   UNL     1      42.725  23.750  17.747  0.00  0.00    +0.394 HD
ENDBRANCH  14  15
TORSDOF 2
ENDMDL
MODEL 3
REMARK VINA RESULT:      -5.2      2.833      5.409
REMARK  Name = ZINC95485883
REMARK  3 active torsions:
REMARK  status: ('A' for Active; 'I' for Inactive)
REMARK    1  A    between atoms: C1_1  and  O1_2
REMARK    2  A    between atoms: O1_2  and  C2_3
REMARK    3  A    between atoms: C14_17  and  O4_18
REMARK                            x       y       z     vdW  Elec       q    Type
REMARK                         _______ _______ _______ _____ _____    ______ ____
ROOT
ATOM      3  C   UNL     1      47.758  20.296  19.235  0.00  0.00    +0.197 A 
ATOM      4  C   UNL     1      47.852  19.173  20.054  0.00  0.00    -0.094 A 
ATOM      5  C   UNL     1      46.721  18.528  20.465  0.00  0.00    +0.161 A 
ATOM      6  C   UNL     1      45.471  18.996  20.060  0.00  0.00    -0.268 A 
ATOM      7  C   UNL     1      45.363  20.122  19.227  0.00  0.00    +0.201 A 
ATOM      8  O   UNL     1      44.162  20.572  18.813  0.00  0.00    -0.217 OA
ATOM      9  C   UNL     1      43.014  20.186  19.406  0.00  0.00    +0.130 A 
ATOM     10  C   UNL     1      42.974  19.070  20.254  0.00  0.00    -0.211 A 
ATOM     11  C   UNL     1      41.779  18.679  20.854  0.00  0.00    +0.108 A 
ATOM     12  C   UNL     1      40.628  19.398  20.615  0.00  0.00    +0.011 A 
ATOM     13  C   UNL     1      40.658  20.505  19.780  0.00  0.00    +0.067 A 
ATOM     14  C   UNL     1      41.837  20.902  19.178  0.00  0.00    +0.086 A 
ATOM     17  C   UNL     1      44.229  18.325  20.497  0.00  0.00    +0.444 A 
ATOM     18  O   UNL     1      44.237  17.228  21.024  0.00  0.00    -0.446 OA
ATOM     19  C   UNL     1      46.524  20.773  18.827  0.00  0.00    -0.032 A 
ENDROOT
BRANCH   3   2
ATOM      1  C   UNL     1      50.084  20.654  19.570  0.00  0.00    +0.255 C 
ATOM      2  O   UNL     1      48.890  20.933  18.837  0.00  0.00    -0.306 OA
ENDBRANCH   3   2
BRANCH  14  15
ATOM     15  O   UNL     1      41.850  21.990  18.362  0.00  0.00    -0.481 OA
ATOM     16  H   UNL     1      40.971  22.326  18.139  0.00  0.00    +0.394 HD
ENDBRANCH  14  15
TORSDOF 2
ENDMDL
MODEL 4
REMARK VINA RESULT:      -5.1      1.492      2.148
REMARK  Name = ZINC95485883
REMARK  3 active torsions:
REMARK  status: ('A' for Active; 'I' for Inactive)
REMARK    1  A    between atoms: C1_1  and  O1_2
REMARK    2  A    between atoms: O1_2  and  C2_3
REMARK    3  A    between atoms: C14_17  and  O4_18
REMARK                            x       y       z     vdW  Elec       q    Type
REMARK                         _______ _______ _______ _____ _____    ______ ____
ROOT
ATOM      3  C   UNL     1      43.763  18.419  20.991  0.00  0.00    +0.197 A 
ATOM      4  C   UNL     1      43.549  17.449  21.968  0.00  0.00    -0.094 A 
ATOM      5  C   UNL     1      44.082  16.201  21.824  0.00  0.00    +0.161 A 
ATOM      6  C   UNL     1      44.846  15.900  20.696  0.00  0.00    -0.268 A 
ATOM      7  C   UNL     1      45.078  16.873  19.708  0.00  0.00    +0.201 A 
ATOM      8  O   UNL     1      45.830  16.600  18.624  0.00  0.00    -0.217 OA
ATOM      9  C   UNL     1      46.131  15.336  18.264  0.00  0.00    +0.130 A 
ATOM     10  C   UNL     1      45.961  14.268  19.156  0.00  0.00    -0.211 A 
ATOM     11  C   UNL     1      46.284  12.967  18.774  0.00  0.00    +0.108 A 
ATOM     12  C   UNL     1      46.770  12.729  17.507  0.00  0.00    +0.011 A 
ATOM     13  C   UNL     1      46.938  13.779  16.616  0.00  0.00    +0.067 A 
ATOM     14  C   UNL     1      46.624  15.074  16.984  0.00  0.00    +0.086 A 
ATOM     17  C   UNL     1      45.429  14.556  20.507  0.00  0.00    +0.444 A 
ATOM     18  O   UNL     1      45.468  13.736  21.405  0.00  0.00    -0.446 OA
ATOM     19  C   UNL     1      44.518  18.135  19.865  0.00  0.00    -0.032 A 
ENDROOT
BRANCH   3   2
ATOM      1  C   UNL     1      43.353  20.561  20.045  0.00  0.00    +0.255 C 
ATOM      2  O   UNL     1      43.223  19.656  21.143  0.00  0.00    -0.306 OA
ENDBRANCH   3   2
BRANCH  14  15
ATOM     15  O   UNL     1      46.795  16.092  16.100  0.00  0.00    -0.481 OA
ATOM     16  H   UNL     1      46.048  16.223  15.500  0.00  0.00    +0.394 HD
ENDBRANCH  14  15
TORSDOF 2
ENDMDL
MODEL 5
REMARK VINA RESULT:      -4.9     22.694     23.337
REMARK  Name = ZINC95485883
REMARK  3 active torsions:
REMARK  status: ('A' for Active; 'I' for Inactive)
REMARK    1  A    between atoms: C1_1  and  O1_2
REMARK    2  A    between atoms: O1_2  and  C2_3
REMARK    3  A    between atoms: C14_17  and  O4_18
REMARK                            x       y       z     vdW  Elec       q    Type
REMARK                         _______ _______ _______ _____ _____    ______ ____
ROOT
ATOM      3  C   UNL     1      50.198  33.812   3.453  0.00  0.00    +0.197 A 
ATOM      4  C   UNL     1      50.477  33.202   2.232  0.00  0.00    -0.094 A 
ATOM      5  C   UNL     1      51.710  32.664   1.999  0.00  0.00    +0.161 A 
ATOM      6  C   UNL     1      52.690  32.725   2.991  0.00  0.00    -0.268 A 
ATOM      7  C   UNL     1      52.418  33.329   4.230  0.00  0.00    +0.201 A 
ATOM      8  O   UNL     1      53.350  33.376   5.203  0.00  0.00    -0.217 OA
ATOM      9  C   UNL     1      54.655  33.147   4.951  0.00  0.00    +0.130 A 
ATOM     10  C   UNL     1      55.068  32.538   3.757  0.00  0.00    -0.211 A 
ATOM     11  C   UNL     1      56.419  32.300   3.514  0.00  0.00    +0.108 A 
ATOM     12  C   UNL     1      57.357  32.671   4.453  0.00  0.00    +0.011 A 
ATOM     13  C   UNL     1      56.958  33.277   5.636  0.00  0.00    +0.067 A 
ATOM     14  C   UNL     1      55.621  33.516   5.889  0.00  0.00    +0.086 A 
ATOM     17  C   UNL     1      54.037  32.160   2.766  0.00  0.00    +0.444 A 
ATOM     18  O   UNL     1      54.283  31.431   1.823  0.00  0.00    -0.446 OA
ATOM     19  C   UNL     1      51.161  33.881   4.445  0.00  0.00    -0.032 A 
ENDROOT
BRANCH   3   2
ATOM      1  C   UNL     1      48.399  35.115   2.608  0.00  0.00    +0.255 C 
ATOM      2  O   UNL     1      48.969  34.348   3.670  0.00  0.00    -0.306 OA
ENDBRANCH   3   2
BRANCH  14  15
ATOM     15  O   UNL     1      55.246  34.110   7.053  0.00  0.00    -0.481 OA
ATOM     16  H   UNL     1      55.923  34.084   7.744  0.00  0.00    +0.394 HD
ENDBRANCH  14  15
TORSDOF 2
ENDMDL
MODEL 6
REMARK VINA RESULT:      -4.9     21.909     23.668
REMARK  Name = ZINC95485883
REMARK  3 active torsions:
REMARK  status: ('A' for Active; 'I' for Inactive)
REMARK    1  A    between atoms: C1_1  and  O1_2
REMARK    2  A    between atoms: O1_2  and  C2_3
REMARK    3  A    between atoms: C14_17  and  O4_18
REMARK                            x       y       z     vdW  Elec       q    Type
REMARK                         _______ _______ _______ _____ _____    ______ ____
ROOT
ATOM      3  C   UNL     1      51.853  32.022  -0.234  0.00  0.00    +0.197 A 
ATOM      4  C   UNL     1      53.214  31.746  -0.346  0.00  0.00    -0.094 A 
ATOM      5  C   UNL     1      54.011  31.759   0.763  0.00  0.00    +0.161 A 
ATOM      6  C   UNL     1      53.456  32.047   2.011  0.00  0.00    -0.268 A 
ATOM      7  C   UNL     1      52.083  32.317   2.138  0.00  0.00    +0.201 A 
ATOM      8  O   UNL     1      51.532  32.577   3.341  0.00  0.00    -0.217 OA
ATOM      9  C   UNL     1      52.282  32.902   4.413  0.00  0.00    +0.130 A 
ATOM     10  C   UNL     1      53.665  32.675   4.427  0.00  0.00    -0.211 A 
ATOM     11  C   UNL     1      54.427  33.008   5.546  0.00  0.00    +0.108 A 
ATOM     12  C   UNL     1      53.815  33.570   6.645  0.00  0.00    +0.011 A 
ATOM     13  C   UNL     1      52.447  33.802   6.639  0.00  0.00    +0.067 A 
ATOM     14  C   UNL     1      51.681  33.474   5.536  0.00  0.00    +0.086 A 
ATOM     17  C   UNL     1      54.293  32.077   3.227  0.00  0.00    +0.444 A 
ATOM     18  O   UNL     1      55.429  31.640   3.242  0.00  0.00    -0.446 OA
ATOM     19  C   UNL     1      51.289  32.311   0.997  0.00  0.00    -0.032 A 
ENDROOT
BRANCH   3   2
ATOM      1  C   UNL     1      49.915  32.850  -1.333  0.00  0.00    +0.255 C 
ATOM      2  O   UNL     1      51.073  32.011  -1.345  0.00  0.00    -0.306 OA
ENDBRANCH   3   2
BRANCH  14  15
ATOM     15  O   UNL     1      50.341  33.707   5.547  0.00  0.00    -0.481 OA
ATOM     16  H   UNL     1      49.902  33.517   4.706  0.00  0.00    +0.394 HD
ENDBRANCH  14  15
TORSDOF 2
ENDMDL
MODEL 7
REMARK VINA RESULT:      -4.9      4.032      6.132
REMARK  Name = ZINC95485883
REMARK  3 active torsions:
REMARK  status: ('A' for Active; 'I' for Inactive)
REMARK    1  A    between atoms: C1_1  and  O1_2
REMARK    2  A    between atoms: O1_2  and  C2_3
REMARK    3  A    between atoms: C14_17  and  O4_18
REMARK                            x       y       z     vdW  Elec       q    Type
REMARK                         _______ _______ _______ _____ _____    ______ ____
ROOT
ATOM      3  C   UNL     1      46.776  15.714  17.860  0.00  0.00    +0.197 A 
ATOM      4  C   UNL     1      46.052  16.508  18.746  0.00  0.00    -0.094 A 
ATOM      5  C   UNL     1      46.526  17.735  19.113  0.00  0.00    +0.161 A 
ATOM      6  C   UNL     1      47.739  18.191  18.596  0.00  0.00    -0.268 A 
ATOM      7  C   UNL     1      48.475  17.403  17.694  0.00  0.00    +0.201 A 
ATOM      8  O   UNL     1      49.638  17.842  17.173  0.00  0.00    -0.217 OA
ATOM      9  C   UNL     1      50.310  18.882  17.705  0.00  0.00    +0.130 A 
ATOM     10  C   UNL     1      49.694  19.758  18.610  0.00  0.00    -0.211 A 
ATOM     11  C   UNL     1      50.399  20.834  19.146  0.00  0.00    +0.108 A 
ATOM     12  C   UNL     1      51.714  21.036  18.787  0.00  0.00    +0.011 A 
ATOM     13  C   UNL     1      52.333  20.173  17.895  0.00  0.00    +0.067 A 
ATOM     14  C   UNL     1      51.644  19.103  17.355  0.00  0.00    +0.086 A 
ATOM     17  C   UNL     1      48.283  19.509  18.982  0.00  0.00    +0.444 A 
ATOM     18  O   UNL     1      47.614  20.338  19.569  0.00  0.00    -0.446 OA
ATOM     19  C   UNL     1      47.983  16.153  17.340  0.00  0.00    -0.032 A 
ENDROOT
BRANCH   3   2
ATOM      1  C   UNL     1      47.055  13.750  16.550  0.00  0.00    +0.255 C 
ATOM      2  O   UNL     1      46.297  14.494  17.506  0.00  0.00    -0.306 OA
ENDBRANCH   3   2
BRANCH  14  15
ATOM     15  O   UNL     1      52.265  18.266  16.481  0.00  0.00    -0.481 OA
ATOM     16  H   UNL     1      51.666  17.831  15.859  0.00  0.00    +0.394 HD
ENDBRANCH  14  15
TORSDOF 2
ENDMDL
MODEL 8
REMARK VINA RESULT:      -4.9      2.252      2.975
REMARK  Name = ZINC95485883
REMARK  3 active torsions:
REMARK  status: ('A' for Active; 'I' for Inactive)
REMARK    1  A    between atoms: C1_1  and  O1_2
REMARK    2  A    between atoms: O1_2  and  C2_3
REMARK    3  A    between atoms: C14_17  and  O4_18
REMARK                            x       y       z     vdW  Elec       q    Type
REMARK                         _______ _______ _______ _____ _____    ______ ____
ROOT
ATOM      3  C   UNL     1      43.238  20.594  19.360  0.00  0.00    +0.197 A 
ATOM      4  C   UNL     1      43.998  21.385  20.218  0.00  0.00    -0.094 A 
ATOM      5  C   UNL     1      45.359  21.271  20.233  0.00  0.00    +0.161 A 
ATOM      6  C   UNL     1      45.986  20.360  19.382  0.00  0.00    -0.268 A 
ATOM      7  C   UNL     1      45.231  19.562  18.505  0.00  0.00    +0.201 A 
ATOM      8  O   UNL     1      45.827  18.693  17.666  0.00  0.00    -0.217 OA
ATOM      9  C   UNL     1      47.110  18.309  17.829  0.00  0.00    +0.130 A 
ATOM     10  C   UNL     1      47.979  19.023  18.666  0.00  0.00    -0.211 A 
ATOM     11  C   UNL     1      49.305  18.620  18.819  0.00  0.00    +0.108 A 
ATOM     12  C   UNL     1      49.762  17.508  18.145  0.00  0.00    +0.011 A 
ATOM     13  C   UNL     1      48.908  16.794  17.318  0.00  0.00    +0.067 A 
ATOM     14  C   UNL     1      47.592  17.185  17.156  0.00  0.00    +0.086 A 
ATOM     17  C   UNL     1      47.456  20.207  19.382  0.00  0.00    +0.444 A 
ATOM     18  O   UNL     1      48.189  21.004  19.936  0.00  0.00    -0.446 OA
ATOM     19  C   UNL     1      43.847  19.684  18.512  0.00  0.00    -0.032 A 
ENDROOT
BRANCH   3   2
ATOM      1  C   UNL     1      41.338  21.893  18.769  0.00  0.00    +0.255 C 
ATOM      2  O   UNL     1      41.886  20.712  19.359  0.00  0.00    -0.306 OA
ENDBRANCH   3   2
BRANCH  14  15
ATOM     15  O   UNL     1      46.767  16.475  16.341  0.00  0.00    -0.481 OA
ATOM     16  H   UNL     1      47.157  15.656  16.003  0.00  0.00    +0.394 HD
ENDBRANCH  14  15
TORSDOF 2
ENDMDL
MODEL 9
REMARK VINA RESULT:      -4.8      4.343      6.915
REMARK  Name = ZINC95485883
REMARK  3 active torsions:
REMARK  status: ('A' for Active; 'I' for Inactive)
REMARK    1  A    between atoms: C1_1  and  O1_2
REMARK    2  A    between atoms: O1_2  and  C2_3
REMARK    3  A    between atoms: C14_17  and  O4_18
REMARK                            x       y       z     vdW  Elec       q    Type
REMARK                         _______ _______ _______ _____ _____    ______ ____
ROOT
ATOM      3  C   UNL     1      47.772  15.309  18.895  0.00  0.00    +0.197 A 
ATOM      4  C   UNL     1      48.478  14.528  17.982  0.00  0.00    -0.094 A 
ATOM      5  C   UNL     1      49.544  15.053  17.311  0.00  0.00    +0.161 A 
ATOM      6  C   UNL     1      49.927  16.374  17.544  0.00  0.00    -0.268 A 
ATOM      7  C   UNL     1      49.229  17.169  18.469  0.00  0.00    +0.201 A 
ATOM      8  O   UNL     1      49.602  18.440  18.717  0.00  0.00    -0.217 OA
ATOM      9  C   UNL     1      50.432  19.113  17.894  0.00  0.00    +0.130 A 
ATOM     10  C   UNL     1      51.199  18.443  16.931  0.00  0.00    -0.211 A 
ATOM     11  C   UNL     1      52.059  19.151  16.092  0.00  0.00    +0.108 A 
ATOM     12  C   UNL     1      52.151  20.521  16.209  0.00  0.00    +0.011 A 
ATOM     13  C   UNL     1      51.393  21.193  17.157  0.00  0.00    +0.067 A 
ATOM     14  C   UNL     1      50.538  20.502  17.995  0.00  0.00    +0.086 A 
ATOM     17  C   UNL     1      51.071  16.973  16.825  0.00  0.00    +0.444 A 
ATOM     18  O   UNL     1      51.858  16.300  16.186  0.00  0.00    -0.446 OA
ATOM     19  C   UNL     1      48.139  16.622  19.135  0.00  0.00    -0.032 A 
ENDROOT
BRANCH   3   2
ATOM      1  C   UNL     1      45.550  15.601  19.685  0.00  0.00    +0.255 C 
ATOM      2  O   UNL     1      46.710  14.777  19.553  0.00  0.00    -0.306 OA
ENDBRANCH   3   2
BRANCH  14  15
ATOM     15  O   UNL     1      49.803  21.175  18.920  0.00  0.00    -0.481 OA
ATOM     16  H   UNL     1      50.272  21.345  19.749  0.00  0.00    +0.394 HD
ENDBRANCH  14  15
TORSDOF 2
ENDMDL
