MODEL 1
REMARK VINA RESULT:      -6.5      0.000      0.000
REMARK  Name = ZINC95486012
REMARK  4 active torsions:
REMARK  status: ('A' for Active; 'I' for Inactive)
REMARK    1  A    between atoms: C1_1  and  O1_2
REMARK    2  A    between atoms: O1_2  and  C2_3
REMARK    3  A    between atoms: C7_8  and  O2_9
REMARK    4  A    between atoms: O2_9  and  C8_10
REMARK                            x       y       z     vdW  Elec       q    Type
REMARK                         _______ _______ _______ _____ _____    ______ ____
ROOT
ATOM      3  C   UNL     1      41.857  20.352  19.638  0.00  0.00    +0.111 A 
ATOM      4  C   UNL     1      42.300  19.093  19.999  0.00  0.00    -0.042 A 
ATOM      5  C   UNL     1      43.647  18.858  20.244  0.00  0.00    -0.070 A 
ATOM      6  C   UNL     1      44.550  19.896  20.129  0.00  0.00    -0.079 A 
ATOM      7  C   UNL     1      46.013  19.705  20.411  0.00  0.00    +0.009 C 
ATOM      8  C   UNL     1      46.380  18.223  20.266  0.00  0.00    +0.187 C 
ATOM      9  O   UNL     1      47.753  18.050  20.598  0.00  0.00    -0.297 OA
ATOM     10  C   UNL     1      48.660  18.814  19.930  0.00  0.00    +0.198 A 
ATOM     11  C   UNL     1      49.974  18.362  19.868  0.00  0.00    +0.005 A 
ATOM     12  C   UNL     1      50.896  19.150  19.185  0.00  0.00    +0.118 A 
ATOM     13  C   UNL     1      50.505  20.371  18.576  0.00  0.00    -0.179 A 
ATOM     14  C   UNL     1      49.194  20.829  18.634  0.00  0.00    +0.187 A 
ATOM     15  C   UNL     1      51.714  20.912  17.969  0.00  0.00    -0.027 A 
ATOM     16  C   UNL     1      52.690  20.029  18.238  0.00  0.00    +0.211 A 
ATOM     17  O   UNL     1      52.201  18.994  18.953  0.00  0.00    -0.186 OA
ATOM     18  C   UNL     1      48.277  20.025  19.323  0.00  0.00    -0.260 A 
ATOM     19  C   UNL     1      45.468  17.421  21.194  0.00  0.00    +0.067 C 
ATOM     20  C   UNL     1      46.864  20.473  19.421  0.00  0.00    +0.414 C 
ATOM     21  O   UNL     1      46.418  21.383  18.754  0.00  0.00    -0.432 OA
ATOM     22  C   UNL     1      44.111  21.159  19.758  0.00  0.00    +0.003 A 
ATOM     23  C   UNL     1      44.053  17.457  20.619  0.00  0.00    +0.099 C 
ATOM     24  C   UNL     1      42.772  21.392  19.507  0.00  0.00    +0.097 A 
ENDROOT
BRANCH   3   2
ATOM      1  C   UNL     1      40.066  20.354  18.073  0.00  0.00    +0.238 C 
ATOM      2  O   UNL     1      40.535  20.570  19.405  0.00  0.00    -0.305 OA
ENDBRANCH   3   2
BRANCH  24  25
ATOM     25  O   UNL     1      42.350  22.632  19.141  0.00  0.00    -0.305 OA
ATOM     26  C   UNL     1      43.313  23.686  19.192  0.00  0.00    +0.239 C 
ENDBRANCH  24  25
TORSDOF 2
ENDMDL
MODEL 2
REMARK VINA RESULT:      -6.3      2.157      7.859
REMARK  Name = ZINC95486012
REMARK  4 active torsions:
REMARK  status: ('A' for Active; 'I' for Inactive)
REMARK    1  A    between atoms: C1_1  and  O1_2
REMARK    2  A    between atoms: O1_2  and  C2_3
REMARK    3  A    between atoms: C7_8  and  O2_9
REMARK    4  A    between atoms: O2_9  and  C8_10
REMARK                            x       y       z     vdW  Elec       q    Type
REMARK                         _______ _______ _______ _____ _____    ______ ____
ROOT
ATOM      3  C   UNL     1      50.324  17.065  17.920  0.00  0.00    +0.111 A 
ATOM      4  C   UNL     1      50.457  18.396  18.270  0.00  0.00    -0.042 A 
ATOM      5  C   UNL     1      49.370  19.116  18.749  0.00  0.00    -0.070 A 
ATOM      6  C   UNL     1      48.145  18.492  18.878  0.00  0.00    -0.079 A 
ATOM      7  C   UNL     1      46.944  19.214  19.417  0.00  0.00    +0.009 C 
ATOM      8  C   UNL     1      47.126  20.727  19.242  0.00  0.00    +0.187 C 
ATOM      9  O   UNL     1      46.010  21.398  19.815  0.00  0.00    -0.297 OA
ATOM     10  C   UNL     1      44.771  21.033  19.385  0.00  0.00    +0.198 A 
ATOM     11  C   UNL     1      43.731  21.944  19.541  0.00  0.00    +0.005 A 
ATOM     12  C   UNL     1      42.467  21.563  19.100  0.00  0.00    +0.118 A 
ATOM     13  C   UNL     1      42.251  20.288  18.514  0.00  0.00    -0.179 A 
ATOM     14  C   UNL     1      43.285  19.373  18.355  0.00  0.00    +0.187 A 
ATOM     15  C   UNL     1      40.833  20.243  18.185  0.00  0.00    -0.027 A 
ATOM     16  C   UNL     1      40.325  21.425  18.572  0.00  0.00    +0.211 A 
ATOM     17  O   UNL     1      41.293  22.197  19.108  0.00  0.00    -0.186 OA
ATOM     18  C   UNL     1      44.552  19.771  18.801  0.00  0.00    -0.260 A 
ATOM     19  C   UNL     1      48.435  21.123  19.924  0.00  0.00    +0.067 C 
ATOM     20  C   UNL     1      45.690  18.826  18.661  0.00  0.00    +0.414 C 
ATOM     21  O   UNL     1      45.626  17.820  17.986  0.00  0.00    -0.432 OA
ATOM     22  C   UNL     1      48.005  17.159  18.519  0.00  0.00    +0.003 A 
ATOM     23  C   UNL     1      49.592  20.565  19.096  0.00  0.00    +0.099 C 
ATOM     24  C   UNL     1      49.085  16.443  18.036  0.00  0.00    +0.097 A 
ENDROOT
BRANCH   3   2
ATOM      1  C   UNL     1      52.504  16.216  18.350  0.00  0.00    +0.238 C 
ATOM      2  O   UNL     1      51.398  16.370  17.458  0.00  0.00    -0.305 OA
ENDBRANCH   3   2
BRANCH  24  25
ATOM     25  O   UNL     1      48.939  15.138  17.683  0.00  0.00    -0.305 OA
ATOM     26  C   UNL     1      47.821  14.811  16.857  0.00  0.00    +0.239 C 
ENDBRANCH  24  25
TORSDOF 2
ENDMDL
MODEL 3
REMARK VINA RESULT:      -6.0      1.455      7.451
REMARK  Name = ZINC95486012
REMARK  4 active torsions:
REMARK  status: ('A' for Active; 'I' for Inactive)
REMARK    1  A    between atoms: C1_1  and  O1_2
REMARK    2  A    between atoms: O1_2  and  C2_3
REMARK    3  A    between atoms: C7_8  and  O2_9
REMARK    4  A    between atoms: O2_9  and  C8_10
REMARK                            x       y       z     vdW  Elec       q    Type
REMARK                         _______ _______ _______ _____ _____    ______ ____
ROOT
ATOM      3  C   UNL     1      50.898  19.924  20.038  0.00  0.00    +0.111 A 
ATOM      4  C   UNL     1      50.296  18.994  20.865  0.00  0.00    -0.042 A 
ATOM      5  C   UNL     1      48.949  18.684  20.722  0.00  0.00    -0.070 A 
ATOM      6  C   UNL     1      48.208  19.309  19.739  0.00  0.00    -0.079 A 
ATOM      7  C   UNL     1      46.757  18.990  19.521  0.00  0.00    +0.009 C 
ATOM      8  C   UNL     1      46.160  18.389  20.800  0.00  0.00    +0.187 C 
ATOM      9  O   UNL     1      44.804  18.034  20.556  0.00  0.00    -0.297 OA
ATOM     10  C   UNL     1      43.978  19.004  20.077  0.00  0.00    +0.198 A 
ATOM     11  C   UNL     1      42.610  18.853  20.275  0.00  0.00    +0.005 A 
ATOM     12  C   UNL     1      41.772  19.849  19.781  0.00  0.00    +0.118 A 
ATOM     13  C   UNL     1      42.300  20.976  19.099  0.00  0.00    -0.179 A 
ATOM     14  C   UNL     1      43.666  21.134  18.897  0.00  0.00    +0.187 A 
ATOM     15  C   UNL     1      41.147  21.788  18.731  0.00  0.00    -0.027 A 
ATOM     16  C   UNL     1      40.070  21.131  19.193  0.00  0.00    +0.211 A 
ATOM     17  O   UNL     1      40.446  19.992  19.811  0.00  0.00    -0.186 OA
ATOM     18  C   UNL     1      44.497  20.125  19.401  0.00  0.00    -0.260 A 
ATOM     19  C   UNL     1      47.003  17.174  21.183  0.00  0.00    +0.067 C 
ATOM     20  C   UNL     1      45.965  20.242  19.205  0.00  0.00    +0.414 C 
ATOM     21  O   UNL     1      46.495  21.265  18.826  0.00  0.00    -0.432 OA
ATOM     22  C   UNL     1      48.806  20.250  18.912  0.00  0.00    +0.003 A 
ATOM     23  C   UNL     1      48.363  17.671  21.670  0.00  0.00    +0.099 C 
ATOM     24  C   UNL     1      50.145  20.564  19.058  0.00  0.00    +0.097 A 
ENDROOT
BRANCH   3   2
ATOM      1  C   UNL     1      52.601  20.913  21.372  0.00  0.00    +0.238 C 
ATOM      2  O   UNL     1      52.218  20.215  20.184  0.00  0.00    -0.305 OA
ENDBRANCH   3   2
BRANCH  24  25
ATOM     25  O   UNL     1      50.723  21.489  18.246  0.00  0.00    -0.305 OA
ATOM     26  C   UNL     1      51.306  21.013  17.032  0.00  0.00    +0.239 C 
ENDBRANCH  24  25
TORSDOF 2
ENDMDL
MODEL 4
REMARK VINA RESULT:      -6.0      4.877      6.852
REMARK  Name = ZINC95486012
REMARK  4 active torsions:
REMARK  status: ('A' for Active; 'I' for Inactive)
REMARK    1  A    between atoms: C1_1  and  O1_2
REMARK    2  A    between atoms: O1_2  and  C2_3
REMARK    3  A    between atoms: C7_8  and  O2_9
REMARK    4  A    between atoms: O2_9  and  C8_10
REMARK                            x       y       z     vdW  Elec       q    Type
REMARK                         _______ _______ _______ _____ _____    ______ ____
ROOT
ATOM      3  C   UNL     1      46.397  11.854  16.651  0.00  0.00    +0.111 A 
ATOM      4  C   UNL     1      45.811  12.511  17.718  0.00  0.00    -0.042 A 
ATOM      5  C   UNL     1      46.145  13.827  18.011  0.00  0.00    -0.070 A 
ATOM      6  C   UNL     1      47.069  14.486  17.225  0.00  0.00    -0.079 A 
ATOM      7  C   UNL     1      47.445  15.917  17.479  0.00  0.00    +0.009 C 
ATOM      8  C   UNL     1      47.135  16.284  18.936  0.00  0.00    +0.187 C 
ATOM      9  O   UNL     1      47.437  17.659  19.141  0.00  0.00    -0.297 OA
ATOM     10  C   UNL     1      48.691  18.081  18.820  0.00  0.00    +0.198 A 
ATOM     11  C   UNL     1      49.165  19.239  19.426  0.00  0.00    +0.005 A 
ATOM     12  C   UNL     1      50.447  19.665  19.091  0.00  0.00    +0.118 A 
ATOM     13  C   UNL     1      51.238  18.939  18.162  0.00  0.00    -0.179 A 
ATOM     14  C   UNL     1      50.771  17.781  17.552  0.00  0.00    +0.187 A 
ATOM     15  C   UNL     1      52.494  19.672  18.059  0.00  0.00    -0.027 A 
ATOM     16  C   UNL     1      52.377  20.723  18.887  0.00  0.00    +0.211 A 
ATOM     17  O   UNL     1      51.171  20.712  19.492  0.00  0.00    -0.186 OA
ATOM     18  C   UNL     1      49.479  17.364  17.901  0.00  0.00    -0.260 A 
ATOM     19  C   UNL     1      45.658  15.985  19.189  0.00  0.00    +0.067 C 
ATOM     20  C   UNL     1      48.930  16.136  17.271  0.00  0.00    +0.414 C 
ATOM     21  O   UNL     1      49.617  15.360  16.641  0.00  0.00    -0.432 OA
ATOM     22  C   UNL     1      47.667  13.827  16.159  0.00  0.00    +0.003 A 
ATOM     23  C   UNL     1      45.474  14.468  19.197  0.00  0.00    +0.099 C 
ATOM     24  C   UNL     1      47.340  12.515  15.870  0.00  0.00    +0.097 A 
ENDROOT
BRANCH   3   2
ATOM      1  C   UNL     1      44.970  10.365  15.467  0.00  0.00    +0.238 C 
ATOM      2  O   UNL     1      46.058  10.567  16.371  0.00  0.00    -0.305 OA
ENDBRANCH   3   2
BRANCH  24  25
ATOM     25  O   UNL     1      47.933  11.877  14.826  0.00  0.00    -0.305 OA
ATOM     26  C   UNL     1      48.946  12.593  14.118  0.00  0.00    +0.239 C 
ENDBRANCH  24  25
TORSDOF 2
ENDMDL
MODEL 5
REMARK VINA RESULT:      -5.9      4.666      5.688
REMARK  Name = ZINC95486012
REMARK  4 active torsions:
REMARK  status: ('A' for Active; 'I' for Inactive)
REMARK    1  A    between atoms: C1_1  and  O1_2
REMARK    2  A    between atoms: O1_2  and  C2_3
REMARK    3  A    between atoms: C7_8  and  O2_9
REMARK    4  A    between atoms: O2_9  and  C8_10
REMARK                            x       y       z     vdW  Elec       q    Type
REMARK                         _______ _______ _______ _____ _____    ______ ____
ROOT
ATOM      3  C   UNL     1      43.338  18.143  21.394  0.00  0.00    +0.111 A 
ATOM      4  C   UNL     1      43.516  16.935  22.044  0.00  0.00    -0.042 A 
ATOM      5  C   UNL     1      44.461  16.021  21.596  0.00  0.00    -0.070 A 
ATOM      6  C   UNL     1      45.233  16.325  20.493  0.00  0.00    -0.079 A 
ATOM      7  C   UNL     1      46.289  15.387  19.983  0.00  0.00    +0.009 C 
ATOM      8  C   UNL     1      45.984  13.959  20.455  0.00  0.00    +0.187 C 
ATOM      9  O   UNL     1      47.027  13.095  20.019  0.00  0.00    -0.297 OA
ATOM     10  C   UNL     1      47.319  13.085  18.689  0.00  0.00    +0.198 A 
ATOM     11  C   UNL     1      47.956  11.964  18.168  0.00  0.00    +0.005 A 
ATOM     12  C   UNL     1      48.252  11.963  16.809  0.00  0.00    +0.118 A 
ATOM     13  C   UNL     1      47.914  13.070  15.986  0.00  0.00    -0.179 A 
ATOM     14  C   UNL     1      47.277  14.194  16.499  0.00  0.00    +0.187 A 
ATOM     15  C   UNL     1      48.372  12.719  14.649  0.00  0.00    -0.027 A 
ATOM     16  C   UNL     1      48.920  11.497  14.753  0.00  0.00    +0.211 A 
ATOM     17  O   UNL     1      48.844  11.058  16.027  0.00  0.00    -0.186 OA
ATOM     18  C   UNL     1      46.984  14.180  17.869  0.00  0.00    -0.260 A 
ATOM     19  C   UNL     1      45.871  13.984  21.979  0.00  0.00    +0.067 C 
ATOM     20  C   UNL     1      46.310  15.360  18.469  0.00  0.00    +0.414 C 
ATOM     21  O   UNL     1      45.807  16.237  17.799  0.00  0.00    -0.432 OA
ATOM     22  C   UNL     1      45.051  17.532  19.832  0.00  0.00    +0.003 A 
ATOM     23  C   UNL     1      44.585  14.722  22.349  0.00  0.00    +0.099 C 
ATOM     24  C   UNL     1      44.106  18.440  20.272  0.00  0.00    +0.097 A 
ENDROOT
BRANCH   3   2
ATOM      1  C   UNL     1      41.093  18.922  21.311  0.00  0.00    +0.238 C 
ATOM      2  O   UNL     1      42.414  19.032  21.845  0.00  0.00    -0.305 OA
ENDBRANCH   3   2
BRANCH  24  25
ATOM     25  O   UNL     1      43.933  19.620  19.617  0.00  0.00    -0.305 OA
ATOM     26  C   UNL     1      44.925  19.979  18.655  0.00  0.00    +0.239 C 
ENDBRANCH  24  25
TORSDOF 2
ENDMDL
MODEL 6
REMARK VINA RESULT:      -5.9      3.657      5.084
REMARK  Name = ZINC95486012
REMARK  4 active torsions:
REMARK  status: ('A' for Active; 'I' for Inactive)
REMARK    1  A    between atoms: C1_1  and  O1_2
REMARK    2  A    between atoms: O1_2  and  C2_3
REMARK    3  A    between atoms: C7_8  and  O2_9
REMARK    4  A    between atoms: O2_9  and  C8_10
REMARK                            x       y       z     vdW  Elec       q    Type
REMARK                         _______ _______ _______ _____ _____    ______ ____
ROOT
ATOM      3  C   UNL     1      45.084  21.490  20.089  0.00  0.00    +0.111 A 
ATOM      4  C   UNL     1      46.454  21.448  20.269  0.00  0.00    -0.042 A 
ATOM      5  C   UNL     1      47.235  20.540  19.566  0.00  0.00    -0.070 A 
ATOM      6  C   UNL     1      46.635  19.674  18.674  0.00  0.00    -0.079 A 
ATOM      7  C   UNL     1      47.434  18.693  17.866  0.00  0.00    +0.009 C 
ATOM      8  C   UNL     1      48.777  18.425  18.556  0.00  0.00    +0.187 C 
ATOM      9  O   UNL     1      49.547  17.544  17.746  0.00  0.00    -0.297 OA
ATOM     10  C   UNL     1      48.974  16.363  17.384  0.00  0.00    +0.198 A 
ATOM     11  C   UNL     1      49.814  15.313  17.026  0.00  0.00    +0.005 A 
ATOM     12  C   UNL     1      49.220  14.110  16.655  0.00  0.00    +0.118 A 
ATOM     13  C   UNL     1      47.808  13.965  16.644  0.00  0.00    -0.179 A 
ATOM     14  C   UNL     1      46.963  15.009  17.001  0.00  0.00    +0.187 A 
ATOM     15  C   UNL     1      47.558  12.597  16.209  0.00  0.00    -0.027 A 
ATOM     16  C   UNL     1      48.766  12.048  16.002  0.00  0.00    +0.211 A 
ATOM     17  O   UNL     1      49.740  12.943  16.269  0.00  0.00    -0.186 OA
ATOM     18  C   UNL     1      47.575  16.213  17.373  0.00  0.00    -0.260 A 
ATOM     19  C   UNL     1      49.478  19.768  18.755  0.00  0.00    +0.067 C 
ATOM     20  C   UNL     1      46.716  17.363  17.756  0.00  0.00    +0.414 C 
ATOM     21  O   UNL     1      45.528  17.250  17.973  0.00  0.00    -0.432 OA
ATOM     22  C   UNL     1      45.259  19.706  18.496  0.00  0.00    +0.003 A 
ATOM     23  C   UNL     1      48.718  20.547  19.828  0.00  0.00    +0.099 C 
ATOM     24  C   UNL     1      44.479  20.605  19.201  0.00  0.00    +0.097 A 
ENDROOT
BRANCH   3   2
ATOM      1  C   UNL     1      44.713  22.652  22.131  0.00  0.00    +0.238 C 
ATOM      2  O   UNL     1      44.331  22.387  20.779  0.00  0.00    -0.305 OA
ENDBRANCH   3   2
BRANCH  24  25
ATOM     25  O   UNL     1      43.131  20.628  19.023  0.00  0.00    -0.305 OA
ATOM     26  C   UNL     1      42.368  19.646  19.725  0.00  0.00    +0.239 C 
ENDBRANCH  24  25
TORSDOF 2
ENDMDL
MODEL 7
REMARK VINA RESULT:      -5.7      3.881      8.181
REMARK  Name = ZINC95486012
REMARK  4 active torsions:
REMARK  status: ('A' for Active; 'I' for Inactive)
REMARK    1  A    between atoms: C1_1  and  O1_2
REMARK    2  A    between atoms: O1_2  and  C2_3
REMARK    3  A    between atoms: C7_8  and  O2_9
REMARK    4  A    between atoms: O2_9  and  C8_10
REMARK                            x       y       z     vdW  Elec       q    Type
REMARK                         _______ _______ _______ _____ _____    ______ ____
ROOT
ATOM      3  C   UNL     1      50.817  14.211  16.137  0.00  0.00    +0.111 A 
ATOM      4  C   UNL     1      51.464  15.392  16.449  0.00  0.00    -0.042 A 
ATOM      5  C   UNL     1      50.826  16.376  17.194  0.00  0.00    -0.070 A 
ATOM      6  C   UNL     1      49.534  16.167  17.631  0.00  0.00    -0.079 A 
ATOM      7  C   UNL     1      48.807  17.183  18.465  0.00  0.00    +0.009 C 
ATOM      8  C   UNL     1      49.434  18.568  18.256  0.00  0.00    +0.187 C 
ATOM      9  O   UNL     1      48.776  19.506  19.101  0.00  0.00    -0.297 OA
ATOM     10  C   UNL     1      47.422  19.596  19.001  0.00  0.00    +0.198 A 
ATOM     11  C   UNL     1      46.814  20.774  19.424  0.00  0.00    +0.005 A 
ATOM     12  C   UNL     1      45.428  20.858  19.321  0.00  0.00    +0.118 A 
ATOM     13  C   UNL     1      44.667  19.777  18.804  0.00  0.00    -0.179 A 
ATOM     14  C   UNL     1      45.267  18.598  18.379  0.00  0.00    +0.187 A 
ATOM     15  C   UNL     1      43.279  20.217  18.850  0.00  0.00    -0.027 A 
ATOM     16  C   UNL     1      43.301  21.460  19.361  0.00  0.00    +0.211 A 
ATOM     17  O   UNL     1      44.570  21.831  19.634  0.00  0.00    -0.186 OA
ATOM     18  C   UNL     1      46.663  18.529  18.487  0.00  0.00    -0.260 A 
ATOM     19  C   UNL     1      50.923  18.462  18.581  0.00  0.00    +0.067 C 
ATOM     20  C   UNL     1      47.353  17.286  18.054  0.00  0.00    +0.414 C 
ATOM     21  O   UNL     1      46.798  16.418  17.413  0.00  0.00    -0.432 OA
ATOM     22  C   UNL     1      48.876  14.986  17.313  0.00  0.00    +0.003 A 
ATOM     23  C   UNL     1      51.593  17.640  17.481  0.00  0.00    +0.099 C 
ATOM     24  C   UNL     1      49.508  14.010  16.565  0.00  0.00    +0.097 A 
ENDROOT
BRANCH   3   2
ATOM      1  C   UNL     1      51.839  13.598  14.079  0.00  0.00    +0.238 C 
ATOM      2  O   UNL     1      51.454  13.253  15.411  0.00  0.00    -0.305 OA
ENDBRANCH   3   2
BRANCH  24  25
ATOM     25  O   UNL     1      48.856  12.857  16.255  0.00  0.00    -0.305 OA
ATOM     26  C   UNL     1      47.944  12.903  15.157  0.00  0.00    +0.239 C 
ENDBRANCH  24  25
TORSDOF 2
ENDMDL
MODEL 8
REMARK VINA RESULT:      -5.6      4.515      7.932
REMARK  Name = ZINC95486012
REMARK  4 active torsions:
REMARK  status: ('A' for Active; 'I' for Inactive)
REMARK    1  A    between atoms: C1_1  and  O1_2
REMARK    2  A    between atoms: O1_2  and  C2_3
REMARK    3  A    between atoms: C7_8  and  O2_9
REMARK    4  A    between atoms: O2_9  and  C8_10
REMARK                            x       y       z     vdW  Elec       q    Type
REMARK                         _______ _______ _______ _____ _____    ______ ____
ROOT
ATOM      3  C   UNL     1      50.481  20.070  18.553  0.00  0.00    +0.111 A 
ATOM      4  C   UNL     1      49.242  19.960  19.156  0.00  0.00    -0.042 A 
ATOM      5  C   UNL     1      48.585  18.737  19.212  0.00  0.00    -0.070 A 
ATOM      6  C   UNL     1      49.181  17.620  18.663  0.00  0.00    -0.079 A 
ATOM      7  C   UNL     1      48.530  16.268  18.721  0.00  0.00    +0.009 C 
ATOM      8  C   UNL     1      47.017  16.429  18.918  0.00  0.00    +0.187 C 
ATOM      9  O   UNL     1      46.425  15.140  19.035  0.00  0.00    -0.297 OA
ATOM     10  C   UNL     1      46.664  14.248  18.036  0.00  0.00    +0.198 A 
ATOM     11  C   UNL     1      45.762  13.202  17.865  0.00  0.00    +0.005 A 
ATOM     12  C   UNL     1      46.015  12.293  16.843  0.00  0.00    +0.118 A 
ATOM     13  C   UNL     1      47.154  12.430  16.006  0.00  0.00    -0.179 A 
ATOM     14  C   UNL     1      48.059  13.473  16.170  0.00  0.00    +0.187 A 
ATOM     15  C   UNL     1      47.091  11.315  15.071  0.00  0.00    -0.027 A 
ATOM     16  C   UNL     1      45.983  10.626  15.391  0.00  0.00    +0.211 A 
ATOM     17  O   UNL     1      45.354  11.208  16.433  0.00  0.00    -0.186 OA
ATOM     18  C   UNL     1      47.790  14.381  17.203  0.00  0.00    -0.260 A 
ATOM     19  C   UNL     1      46.796  17.270  20.175  0.00  0.00    +0.067 C 
ATOM     20  C   UNL     1      48.732  15.509  17.425  0.00  0.00    +0.414 C 
ATOM     21  O   UNL     1      49.595  15.808  16.628  0.00  0.00    -0.432 OA
ATOM     22  C   UNL     1      50.421  17.727  18.048  0.00  0.00    +0.003 A 
ATOM     23  C   UNL     1      47.232  18.703  19.873  0.00  0.00    +0.099 C 
ATOM     24  C   UNL     1      51.073  18.945  17.986  0.00  0.00    +0.097 A 
ENDROOT
BRANCH   3   2
ATOM      1  C   UNL     1      51.981  21.588  19.602  0.00  0.00    +0.238 C 
ATOM      2  O   UNL     1      51.116  21.271  18.510  0.00  0.00    -0.305 OA
ENDBRANCH   3   2
BRANCH  24  25
ATOM     25  O   UNL     1      52.286  19.042  17.380  0.00  0.00    -0.305 OA
ATOM     26  C   UNL     1      52.292  19.361  15.988  0.00  0.00    +0.239 C 
ENDBRANCH  24  25
TORSDOF 2
ENDMDL
MODEL 9
REMARK VINA RESULT:      -5.6      4.039      5.963
REMARK  Name = ZINC95486012
REMARK  4 active torsions:
REMARK  status: ('A' for Active; 'I' for Inactive)
REMARK    1  A    between atoms: C1_1  and  O1_2
REMARK    2  A    between atoms: O1_2  and  C2_3
REMARK    3  A    between atoms: C7_8  and  O2_9
REMARK    4  A    between atoms: O2_9  and  C8_10
REMARK                            x       y       z     vdW  Elec       q    Type
REMARK                         _______ _______ _______ _____ _____    ______ ____
ROOT
ATOM      3  C   UNL     1      46.284  20.897  20.674  0.00  0.00    +0.111 A 
ATOM      4  C   UNL     1      45.266  20.082  21.134  0.00  0.00    -0.042 A 
ATOM      5  C   UNL     1      45.290  18.713  20.896  0.00  0.00    -0.070 A 
ATOM      6  C   UNL     1      46.345  18.163  20.195  0.00  0.00    -0.079 A 
ATOM      7  C   UNL     1      46.437  16.687  19.934  0.00  0.00    +0.009 C 
ATOM      8  C   UNL     1      45.041  16.057  20.026  0.00  0.00    +0.187 C 
ATOM      9  O   UNL     1      45.155  14.651  19.841  0.00  0.00    -0.297 OA
ATOM     10  C   UNL     1      45.780  14.216  18.712  0.00  0.00    +0.198 A 
ATOM     11  C   UNL     1      45.499  12.929  18.265  0.00  0.00    +0.005 A 
ATOM     12  C   UNL     1      46.144  12.492  17.112  0.00  0.00    +0.118 A 
ATOM     13  C   UNL     1      47.055  13.332  16.420  0.00  0.00    -0.179 A 
ATOM     14  C   UNL     1      47.340  14.619  16.860  0.00  0.00    +0.187 A 
ATOM     15  C   UNL     1      47.527  12.550  15.285  0.00  0.00    -0.027 A 
ATOM     16  C   UNL     1      46.901  11.364  15.368  0.00  0.00    +0.211 A 
ATOM     17  O   UNL     1      46.088  11.337  16.444  0.00  0.00    -0.186 OA
ATOM     18  C   UNL     1      46.683  15.046  18.022  0.00  0.00    -0.260 A 
ATOM     19  C   UNL     1      44.462  16.401  21.398  0.00  0.00    +0.067 C 
ATOM     20  C   UNL     1      46.958  16.412  18.538  0.00  0.00    +0.414 C 
ATOM     21  O   UNL     1      47.551  17.249  17.892  0.00  0.00    -0.432 OA
ATOM     22  C   UNL     1      47.364  18.980  19.723  0.00  0.00    +0.003 A 
ATOM     23  C   UNL     1      44.139  17.895  21.417  0.00  0.00    +0.099 C 
ATOM     24  C   UNL     1      47.337  20.342  19.954  0.00  0.00    +0.097 A 
ENDROOT
BRANCH   3   2
ATOM      1  C   UNL     1      45.111  22.953  20.443  0.00  0.00    +0.238 C 
ATOM      2  O   UNL     1      46.251  22.234  20.919  0.00  0.00    -0.305 OA
ENDBRANCH   3   2
BRANCH  24  25
ATOM     25  O   UNL     1      48.338  21.135  19.486  0.00  0.00    -0.305 OA
ATOM     26  C   UNL     1      49.555  20.489  19.109  0.00  0.00    +0.239 C 
ENDBRANCH  24  25
TORSDOF 2
ENDMDL
