MODEL 1
REMARK VINA RESULT:      -6.8      0.000      0.000
REMARK  Name = ZINC95486275
REMARK  5 active torsions:
REMARK  status: ('A' for Active; 'I' for Inactive)
REMARK    1  A    between atoms: C1_1  and  C2_2
REMARK    2  A    between atoms: C2_2  and  C21_28
REMARK    3  A    between atoms: C9_12  and  O2_14
REMARK    4  A    between atoms: O2_14  and  C11_15
REMARK    5  A    between atoms: C14_19  and  C15_22
REMARK                            x       y       z     vdW  Elec       q    Type
REMARK                         _______ _______ _______ _____ _____    ______ ____
ROOT
ATOM      1  C   UNL     1      44.862  22.694  19.517  0.00  0.00    +0.092 C 
ATOM      2  C   UNL     1      44.885  21.197  19.836  0.00  0.00    -0.102 C 
ATOM      3  C   UNL     1      45.279  20.834  21.269  0.00  0.00    +0.069 C 
ATOM      4  C   UNL     1      45.322  20.245  18.721  0.00  0.00    +0.018 C 
ATOM      5  C   UNL     1      45.755  18.844  19.095  0.00  0.00    -0.229 A 
ATOM      6  C   UNL     1      46.967  18.194  18.948  0.00  0.00    +0.272 A 
ATOM      7  C   UNL     1      47.094  16.867  19.395  0.00  0.00    -0.315 A 
ATOM      8  C   UNL     1      48.385  16.185  19.252  0.00  0.00    +0.406 C 
ATOM      9  C   UNL     1      49.417  16.865  18.370  0.00  0.00    +0.038 C 
ATOM     10  C   UNL     1      49.335  18.371  18.655  0.00  0.00    +0.234 C 
ATOM     17  O   UNL     1      48.615  15.131  19.808  0.00  0.00    -0.431 OA
ATOM     18  C   UNL     1      45.995  16.215  19.973  0.00  0.00    +0.259 A 
ATOM     21  C   UNL     1      44.738  16.883  20.084  0.00  0.00    -0.130 A 
ATOM     22  O   UNL     1      48.014  18.835  18.376  0.00  0.00    -0.292 OA
ATOM     23  C   UNL     1      44.630  18.209  19.652  0.00  0.00    +0.217 A 
ATOM     24  O   UNL     1      43.550  19.029  19.693  0.00  0.00    -0.254 OA
ATOM     25  C   UNL     1      43.845  20.313  19.145  0.00  0.00    +0.174 C 
ENDROOT
BRANCH  10  11
ATOM     11  C   UNL     1      50.320  19.103  17.780  0.00  0.00    -0.091 A 
ATOM     12  C   UNL     1      50.916  18.451  16.716  0.00  0.00    +0.037 A 
ATOM     13  C   UNL     1      51.820  19.123  15.914  0.00  0.00    +0.006 A 
ATOM     14  C   UNL     1      52.127  20.445  16.174  0.00  0.00    +0.014 A 
ATOM     15  C   UNL     1      51.530  21.096  17.237  0.00  0.00    +0.009 A 
ATOM     16  C   UNL     1      50.623  20.427  18.037  0.00  0.00    +0.023 A 
ENDBRANCH  10  11
BRANCH  18  19
ATOM     19  O   UNL     1      46.111  14.931  20.398  0.00  0.00    -0.278 OA
ATOM     20  C   UNL     1      45.300  13.955  19.741  0.00  0.00    +0.253 C 
ENDBRANCH  18  19
TORSDOF 2
ENDMDL
MODEL 2
REMARK VINA RESULT:      -6.4      2.001      5.984
REMARK  Name = ZINC95486275
REMARK  5 active torsions:
REMARK  status: ('A' for Active; 'I' for Inactive)
REMARK    1  A    between atoms: C1_1  and  C2_2
REMARK    2  A    between atoms: C2_2  and  C21_28
REMARK    3  A    between atoms: C9_12  and  O2_14
REMARK    4  A    between atoms: O2_14  and  C11_15
REMARK    5  A    between atoms: C14_19  and  C15_22
REMARK                            x       y       z     vdW  Elec       q    Type
REMARK                         _______ _______ _______ _____ _____    ______ ____
ROOT
ATOM      1  C   UNL     1      52.213  20.890  17.409  0.00  0.00    +0.092 C 
ATOM      2  C   UNL     1      51.734  19.450  17.212  0.00  0.00    -0.102 C 
ATOM      3  C   UNL     1      51.458  19.039  15.764  0.00  0.00    +0.069 C 
ATOM      4  C   UNL     1      50.840  18.849  18.298  0.00  0.00    +0.018 C 
ATOM      5  C   UNL     1      50.020  17.622  17.963  0.00  0.00    -0.229 A 
ATOM      6  C   UNL     1      48.652  17.419  17.933  0.00  0.00    +0.272 A 
ATOM      7  C   UNL     1      48.152  16.153  17.577  0.00  0.00    -0.315 A 
ATOM      8  C   UNL     1      46.701  15.946  17.531  0.00  0.00    +0.406 C 
ATOM      9  C   UNL     1      45.840  17.033  18.149  0.00  0.00    +0.038 C 
ATOM     10  C   UNL     1      46.468  18.381  17.765  0.00  0.00    +0.234 C 
ATOM     17  O   UNL     1      46.214  14.955  17.027  0.00  0.00    -0.431 OA
ATOM     18  C   UNL     1      49.039  15.112  17.267  0.00  0.00    +0.259 A 
ATOM     21  C   UNL     1      50.450  15.323  17.338  0.00  0.00    -0.130 A 
ATOM     22  O   UNL     1      47.810  18.432  18.247  0.00  0.00    -0.292 OA
ATOM     23  C   UNL     1      50.934  16.591  17.676  0.00  0.00    +0.217 A 
ATOM     24  O   UNL     1      52.220  17.010  17.771  0.00  0.00    -0.254 OA
ATOM     25  C   UNL     1      52.299  18.383  18.152  0.00  0.00    +0.174 C 
ENDROOT
BRANCH  10  11
ATOM     11  C   UNL     1      45.669  19.501  18.381  0.00  0.00    -0.091 A 
ATOM     12  C   UNL     1      44.311  19.346  18.592  0.00  0.00    +0.037 A 
ATOM     13  C   UNL     1      43.578  20.373  19.157  0.00  0.00    +0.006 A 
ATOM     14  C   UNL     1      44.203  21.555  19.511  0.00  0.00    +0.014 A 
ATOM     15  C   UNL     1      45.560  21.709  19.300  0.00  0.00    +0.009 A 
ATOM     16  C   UNL     1      46.293  20.680  18.740  0.00  0.00    +0.023 A 
ENDBRANCH  10  11
BRANCH  18  19
ATOM     19  O   UNL     1      48.562  13.888  16.931  0.00  0.00    -0.278 OA
ATOM     20  C   UNL     1      49.106  13.279  15.758  0.00  0.00    +0.253 C 
ENDBRANCH  18  19
TORSDOF 2
ENDMDL
MODEL 3
REMARK VINA RESULT:      -6.1      2.030      5.559
REMARK  Name = ZINC95486275
REMARK  5 active torsions:
REMARK  status: ('A' for Active; 'I' for Inactive)
REMARK    1  A    between atoms: C1_1  and  C2_2
REMARK    2  A    between atoms: C2_2  and  C21_28
REMARK    3  A    between atoms: C9_12  and  O2_14
REMARK    4  A    between atoms: O2_14  and  C11_15
REMARK    5  A    between atoms: C14_19  and  C15_22
REMARK                            x       y       z     vdW  Elec       q    Type
REMARK                         _______ _______ _______ _____ _____    ______ ____
ROOT
ATOM      1  C   UNL     1      44.239  20.646  20.733  0.00  0.00    +0.092 C 
ATOM      2  C   UNL     1      45.652  20.736  20.153  0.00  0.00    -0.102 C 
ATOM      3  C   UNL     1      45.753  21.350  18.755  0.00  0.00    +0.069 C 
ATOM      4  C   UNL     1      46.631  19.613  20.503  0.00  0.00    +0.018 C 
ATOM      5  C   UNL     1      47.865  19.437  19.645  0.00  0.00    -0.229 A 
ATOM      6  C   UNL     1      48.281  18.383  18.851  0.00  0.00    +0.272 A 
ATOM      7  C   UNL     1      49.494  18.490  18.147  0.00  0.00    -0.315 A 
ATOM      8  C   UNL     1      49.925  17.377  17.294  0.00  0.00    +0.406 C 
ATOM      9  C   UNL     1      49.172  16.068  17.454  0.00  0.00    +0.038 C 
ATOM     10  C   UNL     1      47.687  16.418  17.623  0.00  0.00    +0.234 C 
ATOM     17  O   UNL     1      50.838  17.496  16.503  0.00  0.00    -0.431 OA
ATOM     18  C   UNL     1      50.270  19.652  18.262  0.00  0.00    +0.259 A 
ATOM     21  C   UNL     1      49.849  20.718  19.114  0.00  0.00    -0.130 A 
ATOM     22  O   UNL     1      47.526  17.263  18.762  0.00  0.00    -0.292 OA
ATOM     23  C   UNL     1      48.633  20.607  19.795  0.00  0.00    +0.217 A 
ATOM     24  O   UNL     1      48.039  21.503  20.622  0.00  0.00    -0.254 OA
ATOM     25  C   UNL     1      46.799  21.009  21.128  0.00  0.00    +0.174 C 
ENDROOT
BRANCH  10  11
ATOM     11  C   UNL     1      46.891  15.153  17.818  0.00  0.00    -0.091 A 
ATOM     12  C   UNL     1      46.103  14.999  18.944  0.00  0.00    +0.037 A 
ATOM     13  C   UNL     1      45.374  13.838  19.123  0.00  0.00    +0.006 A 
ATOM     14  C   UNL     1      45.431  12.832  18.175  0.00  0.00    +0.014 A 
ATOM     15  C   UNL     1      46.218  12.988  17.050  0.00  0.00    +0.009 A 
ATOM     16  C   UNL     1      46.944  14.149  16.869  0.00  0.00    +0.023 A 
ENDBRANCH  10  11
BRANCH  18  19
ATOM     19  O   UNL     1      51.445  19.756  17.590  0.00  0.00    -0.278 OA
ATOM     20  C   UNL     1      51.603  20.887  16.731  0.00  0.00    +0.253 C 
ENDBRANCH  18  19
TORSDOF 2
ENDMDL
MODEL 4
REMARK VINA RESULT:      -6.1      1.911      4.558
REMARK  Name = ZINC95486275
REMARK  5 active torsions:
REMARK  status: ('A' for Active; 'I' for Inactive)
REMARK    1  A    between atoms: C1_1  and  C2_2
REMARK    2  A    between atoms: C2_2  and  C21_28
REMARK    3  A    between atoms: C9_12  and  O2_14
REMARK    4  A    between atoms: O2_14  and  C11_15
REMARK    5  A    between atoms: C14_19  and  C15_22
REMARK                            x       y       z     vdW  Elec       q    Type
REMARK                         _______ _______ _______ _____ _____    ______ ____
ROOT
ATOM      1  C   UNL     1      48.511  14.636  17.030  0.00  0.00    +0.092 C 
ATOM      2  C   UNL     1      47.378  15.447  17.663  0.00  0.00    -0.102 C 
ATOM      3  C   UNL     1      46.492  16.218  16.682  0.00  0.00    +0.069 C 
ATOM      4  C   UNL     1      47.644  16.086  19.027  0.00  0.00    +0.018 C 
ATOM      5  C   UNL     1      46.741  17.209  19.487  0.00  0.00    -0.229 A 
ATOM      6  C   UNL     1      47.008  18.535  19.776  0.00  0.00    +0.272 A 
ATOM      7  C   UNL     1      45.958  19.375  20.189  0.00  0.00    -0.315 A 
ATOM      8  C   UNL     1      46.242  20.784  20.479  0.00  0.00    +0.406 C 
ATOM      9  C   UNL     1      47.706  21.173  20.589  0.00  0.00    +0.038 C 
ATOM     10  C   UNL     1      48.459  20.415  19.486  0.00  0.00    +0.234 C 
ATOM     17  O   UNL     1      45.353  21.598  20.626  0.00  0.00    -0.431 OA
ATOM     18  C   UNL     1      44.659  18.861  20.314  0.00  0.00    +0.259 A 
ATOM     21  C   UNL     1      44.402  17.482  20.050  0.00  0.00    -0.130 A 
ATOM     22  O   UNL     1      48.271  19.012  19.662  0.00  0.00    -0.292 OA
ATOM     23  C   UNL     1      45.452  16.661  19.623  0.00  0.00    +0.217 A 
ATOM     24  O   UNL     1      45.420  15.347  19.294  0.00  0.00    -0.254 OA
ATOM     25  C   UNL     1      46.709  14.869  18.912  0.00  0.00    +0.174 C 
ENDROOT
BRANCH  10  11
ATOM     11  C   UNL     1      49.929  20.740  19.567  0.00  0.00    -0.091 A 
ATOM     12  C   UNL     1      50.660  20.927  18.409  0.00  0.00    +0.037 A 
ATOM     13  C   UNL     1      52.008  21.225  18.483  0.00  0.00    +0.006 A 
ATOM     14  C   UNL     1      52.624  21.337  19.716  0.00  0.00    +0.014 A 
ATOM     15  C   UNL     1      51.893  21.151  20.873  0.00  0.00    +0.009 A 
ATOM     16  C   UNL     1      50.544  20.857  20.799  0.00  0.00    +0.023 A 
ENDBRANCH  10  11
BRANCH  18  19
ATOM     19  O   UNL     1      43.645  19.665  20.720  0.00  0.00    -0.278 OA
ATOM     20  C   UNL     1      42.436  19.619  19.960  0.00  0.00    +0.253 C 
ENDBRANCH  18  19
TORSDOF 2
ENDMDL
MODEL 5
REMARK VINA RESULT:      -6.1      1.958      6.854
REMARK  Name = ZINC95486275
REMARK  5 active torsions:
REMARK  status: ('A' for Active; 'I' for Inactive)
REMARK    1  A    between atoms: C1_1  and  C2_2
REMARK    2  A    between atoms: C2_2  and  C21_28
REMARK    3  A    between atoms: C9_12  and  O2_14
REMARK    4  A    between atoms: O2_14  and  C11_15
REMARK    5  A    between atoms: C14_19  and  C15_22
REMARK                            x       y       z     vdW  Elec       q    Type
REMARK                         _______ _______ _______ _____ _____    ______ ____
ROOT
ATOM      1  C   UNL     1      45.850  13.268  17.992  0.00  0.00    +0.092 C 
ATOM      2  C   UNL     1      46.893  14.380  18.116  0.00  0.00    -0.102 C 
ATOM      3  C   UNL     1      47.658  14.423  19.440  0.00  0.00    +0.069 C 
ATOM      4  C   UNL     1      46.583  15.716  17.436  0.00  0.00    +0.018 C 
ATOM      5  C   UNL     1      47.357  16.943  17.868  0.00  0.00    -0.229 A 
ATOM      6  C   UNL     1      46.940  18.126  18.451  0.00  0.00    +0.272 A 
ATOM      7  C   UNL     1      47.892  19.116  18.755  0.00  0.00    -0.315 A 
ATOM      8  C   UNL     1      47.449  20.363  19.387  0.00  0.00    +0.406 C 
ATOM      9  C   UNL     1      45.952  20.618  19.410  0.00  0.00    +0.038 C 
ATOM     10  C   UNL     1      45.269  19.277  19.718  0.00  0.00    +0.234 C 
ATOM     17  O   UNL     1      48.238  21.151  19.866  0.00  0.00    -0.431 OA
ATOM     18  C   UNL     1      49.246  18.900  18.457  0.00  0.00    +0.259 A 
ATOM     21  C   UNL     1      49.659  17.691  17.820  0.00  0.00    -0.130 A 
ATOM     22  O   UNL     1      45.628  18.323  18.720  0.00  0.00    -0.292 OA
ATOM     23  C   UNL     1      48.705  16.707  17.539  0.00  0.00    +0.217 A 
ATOM     24  O   UNL     1      48.885  15.489  16.973  0.00  0.00    -0.254 OA
ATOM     25  C   UNL     1      47.654  14.779  16.849  0.00  0.00    +0.174 C 
ENDROOT
BRANCH  10  11
ATOM     11  C   UNL     1      43.774  19.464  19.722  0.00  0.00    -0.091 A 
ATOM     12  C   UNL     1      43.173  20.249  18.756  0.00  0.00    +0.037 A 
ATOM     13  C   UNL     1      41.801  20.421  18.760  0.00  0.00    +0.006 A 
ATOM     14  C   UNL     1      41.030  19.807  19.729  0.00  0.00    +0.014 A 
ATOM     15  C   UNL     1      41.631  19.022  20.694  0.00  0.00    +0.009 A 
ATOM     16  C   UNL     1      43.002  18.846  20.688  0.00  0.00    +0.023 A 
ENDBRANCH  10  11
BRANCH  18  19
ATOM     19  O   UNL     1      50.166  19.856  18.741  0.00  0.00    -0.278 OA
ATOM     20  C   UNL     1      51.089  20.196  17.704  0.00  0.00    +0.253 C 
ENDBRANCH  18  19
TORSDOF 2
ENDMDL
MODEL 6
REMARK VINA RESULT:      -6.0      2.178      6.016
REMARK  Name = ZINC95486275
REMARK  5 active torsions:
REMARK  status: ('A' for Active; 'I' for Inactive)
REMARK    1  A    between atoms: C1_1  and  C2_2
REMARK    2  A    between atoms: C2_2  and  C21_28
REMARK    3  A    between atoms: C9_12  and  O2_14
REMARK    4  A    between atoms: O2_14  and  C11_15
REMARK    5  A    between atoms: C14_19  and  C15_22
REMARK                            x       y       z     vdW  Elec       q    Type
REMARK                         _______ _______ _______ _____ _____    ______ ____
ROOT
ATOM      1  C   UNL     1      52.486  21.826  19.891  0.00  0.00    +0.092 C 
ATOM      2  C   UNL     1      51.973  20.549  19.223  0.00  0.00    -0.102 C 
ATOM      3  C   UNL     1      51.955  20.565  17.693  0.00  0.00    +0.069 C 
ATOM      4  C   UNL     1      50.855  19.782  19.933  0.00  0.00    +0.018 C 
ATOM      5  C   UNL     1      50.046  18.781  19.137  0.00  0.00    -0.229 A 
ATOM      6  C   UNL     1      48.700  18.740  18.824  0.00  0.00    +0.272 A 
ATOM      7  C   UNL     1      48.206  17.673  18.051  0.00  0.00    -0.315 A 
ATOM      8  C   UNL     1      46.780  17.641  17.707  0.00  0.00    +0.406 C 
ATOM      9  C   UNL     1      45.881  18.612  18.449  0.00  0.00    +0.038 C 
ATOM     10  C   UNL     1      46.646  19.939  18.567  0.00  0.00    +0.234 C 
ATOM     17  O   UNL     1      46.343  16.875  16.873  0.00  0.00    -0.431 OA
ATOM     18  C   UNL     1      49.076  16.662  17.616  0.00  0.00    +0.259 A 
ATOM     21  C   UNL     1      50.456  16.695  17.979  0.00  0.00    -0.130 A 
ATOM     22  O   UNL     1      47.872  19.718  19.262  0.00  0.00    -0.292 OA
ATOM     23  C   UNL     1      50.938  17.771  18.733  0.00  0.00    +0.217 A 
ATOM     24  O   UNL     1      52.204  18.010  19.154  0.00  0.00    -0.254 OA
ATOM     25  C   UNL     1      52.287  19.218  19.909  0.00  0.00    +0.174 C 
ENDROOT
BRANCH  10  11
ATOM     11  C   UNL     1      45.809  20.936  19.327  0.00  0.00    -0.091 A 
ATOM     12  C   UNL     1      46.400  21.762  20.264  0.00  0.00    +0.037 A 
ATOM     13  C   UNL     1      45.632  22.677  20.961  0.00  0.00    +0.006 A 
ATOM     14  C   UNL     1      44.274  22.765  20.720  0.00  0.00    +0.014 A 
ATOM     15  C   UNL     1      43.684  21.940  19.783  0.00  0.00    +0.009 A 
ATOM     16  C   UNL     1      44.452  21.029  19.083  0.00  0.00    +0.023 A 
ENDBRANCH  10  11
BRANCH  18  19
ATOM     19  O   UNL     1      48.602  15.627  16.878  0.00  0.00    -0.278 OA
ATOM     20  C   UNL     1      49.353  14.412  16.907  0.00  0.00    +0.253 C 
ENDBRANCH  18  19
TORSDOF 2
ENDMDL
MODEL 7
REMARK VINA RESULT:      -5.8      1.766      4.688
REMARK  Name = ZINC95486275
REMARK  5 active torsions:
REMARK  status: ('A' for Active; 'I' for Inactive)
REMARK    1  A    between atoms: C1_1  and  C2_2
REMARK    2  A    between atoms: C2_2  and  C21_28
REMARK    3  A    between atoms: C9_12  and  O2_14
REMARK    4  A    between atoms: O2_14  and  C11_15
REMARK    5  A    between atoms: C14_19  and  C15_22
REMARK                            x       y       z     vdW  Elec       q    Type
REMARK                         _______ _______ _______ _____ _____    ______ ____
ROOT
ATOM      1  C   UNL     1      47.580  13.091  20.515  0.00  0.00    +0.092 C 
ATOM      2  C   UNL     1      46.478  14.139  20.681  0.00  0.00    -0.102 C 
ATOM      3  C   UNL     1      45.450  14.202  19.550  0.00  0.00    +0.069 C 
ATOM      4  C   UNL     1      46.855  15.455  21.366  0.00  0.00    +0.018 C 
ATOM      5  C   UNL     1      45.945  16.651  21.184  0.00  0.00    -0.229 A 
ATOM      6  C   UNL     1      46.169  17.886  20.605  0.00  0.00    +0.272 A 
ATOM      7  C   UNL     1      45.125  18.828  20.569  0.00  0.00    -0.315 A 
ATOM      8  C   UNL     1      45.360  20.132  19.940  0.00  0.00    +0.406 C 
ATOM      9  C   UNL     1      46.803  20.483  19.624  0.00  0.00    +0.038 C 
ATOM     10  C   UNL     1      47.474  19.206  19.096  0.00  0.00    +0.234 C 
ATOM     17  O   UNL     1      44.448  20.893  19.687  0.00  0.00    -0.431 OA
ATOM     18  C   UNL     1      43.877  18.512  21.126  0.00  0.00    +0.259 A 
ATOM     21  C   UNL     1      43.670  17.247  21.756  0.00  0.00    -0.130 A 
ATOM     22  O   UNL     1      47.383  18.180  20.083  0.00  0.00    -0.292 OA
ATOM     23  C   UNL     1      44.711  16.313  21.769  0.00  0.00    +0.217 A 
ATOM     24  O   UNL     1      44.717  15.057  22.281  0.00  0.00    -0.254 OA
ATOM     25  C   UNL     1      45.982  14.422  22.101  0.00  0.00    +0.174 C 
ENDROOT
BRANCH  10  11
ATOM     11  C   UNL     1      48.923  19.489  18.794  0.00  0.00    -0.091 A 
ATOM     12  C   UNL     1      49.778  18.449  18.475  0.00  0.00    +0.037 A 
ATOM     13  C   UNL     1      51.108  18.708  18.199  0.00  0.00    +0.006 A 
ATOM     14  C   UNL     1      51.582  20.006  18.239  0.00  0.00    +0.014 A 
ATOM     15  C   UNL     1      50.727  21.045  18.557  0.00  0.00    +0.009 A 
ATOM     16  C   UNL     1      49.397  20.786  18.829  0.00  0.00    +0.023 A 
ENDBRANCH  10  11
BRANCH  18  19
ATOM     19  O   UNL     1      42.869  19.420  21.101  0.00  0.00    -0.278 OA
ATOM     20  C   UNL     1      41.538  18.909  21.009  0.00  0.00    +0.253 C 
ENDBRANCH  18  19
TORSDOF 2
ENDMDL
MODEL 8
REMARK VINA RESULT:      -5.8      3.141      6.136
REMARK  Name = ZINC95486275
REMARK  5 active torsions:
REMARK  status: ('A' for Active; 'I' for Inactive)
REMARK    1  A    between atoms: C1_1  and  C2_2
REMARK    2  A    between atoms: C2_2  and  C21_28
REMARK    3  A    between atoms: C9_12  and  O2_14
REMARK    4  A    between atoms: O2_14  and  C11_15
REMARK    5  A    between atoms: C14_19  and  C15_22
REMARK                            x       y       z     vdW  Elec       q    Type
REMARK                         _______ _______ _______ _____ _____    ______ ____
ROOT
ATOM      1  C   UNL     1      51.911  12.588  14.348  0.00  0.00    +0.092 C 
ATOM      2  C   UNL     1      50.594  12.678  15.122  0.00  0.00    -0.102 C 
ATOM      3  C   UNL     1      49.340  12.879  14.269  0.00  0.00    +0.069 C 
ATOM      4  C   UNL     1      50.628  13.350  16.496  0.00  0.00    +0.018 C 
ATOM      5  C   UNL     1      49.325  13.828  17.100  0.00  0.00    -0.229 A 
ATOM      6  C   UNL     1      48.892  15.095  17.446  0.00  0.00    +0.272 A 
ATOM      7  C   UNL     1      47.607  15.255  17.997  0.00  0.00    -0.315 A 
ATOM      8  C   UNL     1      47.144  16.601  18.350  0.00  0.00    +0.406 C 
ATOM      9  C   UNL     1      48.193  17.699  18.360  0.00  0.00    +0.038 C 
ATOM     10  C   UNL     1      49.112  17.459  17.153  0.00  0.00    +0.234 C 
ATOM     17  O   UNL     1      45.982  16.826  18.621  0.00  0.00    -0.431 OA
ATOM     18  C   UNL     1      46.787  14.135  18.198  0.00  0.00    +0.259 A 
ATOM     21  C   UNL     1      47.261  12.828  17.872  0.00  0.00    -0.130 A 
ATOM     22  O   UNL     1      49.701  16.163  17.257  0.00  0.00    -0.292 OA
ATOM     23  C   UNL     1      48.533  12.684  17.308  0.00  0.00    +0.217 A 
ATOM     24  O   UNL     1      49.157  11.551  16.902  0.00  0.00    -0.254 OA
ATOM     25  C   UNL     1      50.458  11.824  16.385  0.00  0.00    +0.174 C 
ENDROOT
BRANCH  10  11
ATOM     11  C   UNL     1      50.196  18.505  17.131  0.00  0.00    -0.091 A 
ATOM     12  C   UNL     1      50.244  19.472  18.119  0.00  0.00    +0.037 A 
ATOM     13  C   UNL     1      51.239  20.432  18.098  0.00  0.00    +0.006 A 
ATOM     14  C   UNL     1      52.186  20.424  17.091  0.00  0.00    +0.014 A 
ATOM     15  C   UNL     1      52.138  19.458  16.105  0.00  0.00    +0.009 A 
ATOM     16  C   UNL     1      51.147  18.495  16.128  0.00  0.00    +0.023 A 
ENDBRANCH  10  11
BRANCH  18  19
ATOM     19  O   UNL     1      45.551  14.284  18.737  0.00  0.00    -0.278 OA
ATOM     20  C   UNL     1      45.197  13.400  19.803  0.00  0.00    +0.253 C 
ENDBRANCH  18  19
TORSDOF 2
ENDMDL
MODEL 9
REMARK VINA RESULT:      -5.7      2.057      3.275
REMARK  Name = ZINC95486275
REMARK  5 active torsions:
REMARK  status: ('A' for Active; 'I' for Inactive)
REMARK    1  A    between atoms: C1_1  and  C2_2
REMARK    2  A    between atoms: C2_2  and  C21_28
REMARK    3  A    between atoms: C9_12  and  O2_14
REMARK    4  A    between atoms: O2_14  and  C11_15
REMARK    5  A    between atoms: C14_19  and  C15_22
REMARK                            x       y       z     vdW  Elec       q    Type
REMARK                         _______ _______ _______ _____ _____    ______ ____
ROOT
ATOM      1  C   UNL     1      45.377  18.616  21.241  0.00  0.00    +0.092 C 
ATOM      2  C   UNL     1      45.963  17.276  20.792  0.00  0.00    -0.102 C 
ATOM      3  C   UNL     1      46.855  16.570  21.816  0.00  0.00    +0.069 C 
ATOM      4  C   UNL     1      46.330  17.126  19.314  0.00  0.00    +0.018 C 
ATOM      5  C   UNL     1      47.272  16.012  18.913  0.00  0.00    -0.229 A 
ATOM      6  C   UNL     1      48.527  16.045  18.332  0.00  0.00    +0.272 A 
ATOM      7  C   UNL     1      49.192  14.834  18.064  0.00  0.00    -0.315 A 
ATOM      8  C   UNL     1      50.530  14.872  17.463  0.00  0.00    +0.406 C 
ATOM      9  C   UNL     1      50.986  16.209  16.908  0.00  0.00    +0.038 C 
ATOM     10  C   UNL     1      50.521  17.292  17.893  0.00  0.00    +0.234 C 
ATOM     17  O   UNL     1      51.233  13.885  17.410  0.00  0.00    -0.431 OA
ATOM     18  C   UNL     1      48.576  13.614  18.377  0.00  0.00    +0.259 A 
ATOM     21  C   UNL     1      47.265  13.592  18.940  0.00  0.00    -0.130 A 
ATOM     22  O   UNL     1      49.101  17.232  18.025  0.00  0.00    -0.292 OA
ATOM     23  C   UNL     1      46.621  14.803  19.218  0.00  0.00    +0.217 A 
ATOM     24  O   UNL     1      45.402  15.006  19.773  0.00  0.00    -0.254 OA
ATOM     25  C   UNL     1      45.100  16.397  19.885  0.00  0.00    +0.174 C 
ENDROOT
BRANCH  10  11
ATOM     11  C   UNL     1      50.921  18.649  17.374  0.00  0.00    -0.091 A 
ATOM     12  C   UNL     1      51.523  18.765  16.135  0.00  0.00    +0.037 A 
ATOM     13  C   UNL     1      51.890  20.011  15.659  0.00  0.00    +0.006 A 
ATOM     14  C   UNL     1      51.655  21.139  16.422  0.00  0.00    +0.014 A 
ATOM     15  C   UNL     1      51.054  21.022  17.661  0.00  0.00    +0.009 A 
ATOM     16  C   UNL     1      50.682  19.778  18.134  0.00  0.00    +0.023 A 
ENDBRANCH  10  11
BRANCH  18  19
ATOM     19  O   UNL     1      49.211  12.444  18.112  0.00  0.00    -0.278 OA
ATOM     20  C   UNL     1      48.535  11.518  17.259  0.00  0.00    +0.253 C 
ENDBRANCH  18  19
TORSDOF 2
ENDMDL
