MODEL 1
REMARK VINA RESULT:      -6.0      0.000      0.000
REMARK  Name = ZINC14441502
REMARK  7 active torsions:
REMARK  status: ('A' for Active; 'I' for Inactive)
REMARK    1  A    between atoms: C1_1  and  C2_2
REMARK    2  A    between atoms: C3_3  and  O7_29
REMARK    3  A    between atoms: C5_6  and  C7_9
REMARK    4  A    between atoms: C8_10  and  O6_27
REMARK    5  A    between atoms: C12_14  and  O3_15
REMARK    6  A    between atoms: C15_19  and  C16_21
REMARK    7  A    between atoms: O6_27  and  C22_28
REMARK                            x       y       z     vdW  Elec       q    Type
REMARK                         _______ _______ _______ _____ _____    ______ ____
ROOT
ATOM      8  C   UNL     1      48.351  18.187  18.817  0.00  0.00    -0.123 A 
ATOM      9  C   UNL     1      47.579  17.553  17.834  0.00  0.00    +0.228 A 
ATOM     12  C   UNL     1      46.256  17.911  17.640  0.00  0.00    -0.093 A 
ATOM     13  C   UNL     1      45.680  18.904  18.419  0.00  0.00    +0.214 A 
ATOM     14  C   UNL     1      46.447  19.545  19.408  0.00  0.00    -0.289 A 
ATOM     15  C   UNL     1      45.812  20.600  20.217  0.00  0.00    +0.426 A 
ATOM     16  C   UNL     1      44.454  20.896  19.949  0.00  0.00    -0.142 A 
ATOM     17  C   UNL     1      43.800  20.216  18.970  0.00  0.00    +0.203 A 
ATOM     24  O   UNL     1      46.431  21.193  21.085  0.00  0.00    -0.455 OA
ATOM     25  O   UNL     1      44.391  19.260  18.236  0.00  0.00    -0.218 OA
ATOM     26  C   UNL     1      47.785  19.186  19.607  0.00  0.00    +0.261 A 
ENDROOT
BRANCH   8   7
ATOM      1  C   UNL     1      53.798  16.570  19.676  0.00  0.00    +0.182 C 
ATOM      2  C   UNL     1      52.388  17.035  19.414  0.00  0.00    +0.106 A 
ATOM      3  C   UNL     1      52.185  18.080  18.583  0.00  0.00    -0.074 A 
ATOM      6  C   UNL     1      50.853  18.516  18.339  0.00  0.00    +0.396 A 
ATOM      7  C   UNL     1      49.767  17.795  19.017  0.00  0.00    -0.202 A 
ATOM     29  C   UNL     1      50.095  16.758  19.838  0.00  0.00    +0.317 A 
ATOM     30  O   UNL     1      50.622  19.456  17.595  0.00  0.00    -0.460 OA
ATOM     31  O   UNL     1      51.372  16.404  20.013  0.00  0.00    -0.202 OA
BRANCH   3   4
ATOM      4  O   UNL     1      53.237  18.705  17.987  0.00  0.00    -0.460 OA
ATOM      5  H   UNL     1      54.051  18.683  18.506  0.00  0.00    +0.387 HD
ENDBRANCH   3   4
ENDBRANCH   8   7
BRANCH  17  18
ATOM     18  C   UNL     1      42.385  20.544  18.702  0.00  0.00    -0.073 A 
ATOM     19  C   UNL     1      41.912  21.841  18.916  0.00  0.00    +0.056 A 
ATOM     20  C   UNL     1      40.591  22.141  18.658  0.00  0.00    +0.014 A 
ATOM     21  C   UNL     1      39.732  21.158  18.201  0.00  0.00    +0.037 A 
ATOM     22  C   UNL     1      40.191  19.869  17.993  0.00  0.00    +0.009 A 
ATOM     23  C   UNL     1      41.512  19.556  18.241  0.00  0.00    +0.054 A 
ENDBRANCH  17  18
BRANCH   9  10
ATOM     10  O   UNL     1      48.134  16.581  17.066  0.00  0.00    -0.296 OA
ATOM     11  C   UNL     1      47.413  15.353  16.954  0.00  0.00    +0.256 C 
ENDBRANCH   9  10
BRANCH  26  27
ATOM     27  O   UNL     1      48.525  19.805  20.561  0.00  0.00    -0.462 OA
ATOM     28  H   UNL     1      49.425  19.463  20.645  0.00  0.00    +0.401 HD
ENDBRANCH  26  27
TORSDOF 5
ENDMDL
MODEL 2
REMARK VINA RESULT:      -6.0      3.758      5.402
REMARK  Name = ZINC14441502
REMARK  7 active torsions:
REMARK  status: ('A' for Active; 'I' for Inactive)
REMARK    1  A    between atoms: C1_1  and  C2_2
REMARK    2  A    between atoms: C3_3  and  O7_29
REMARK    3  A    between atoms: C5_6  and  C7_9
REMARK    4  A    between atoms: C8_10  and  O6_27
REMARK    5  A    between atoms: C12_14  and  O3_15
REMARK    6  A    between atoms: C15_19  and  C16_21
REMARK    7  A    between atoms: O6_27  and  C22_28
REMARK                            x       y       z     vdW  Elec       q    Type
REMARK                         _______ _______ _______ _____ _____    ______ ____
ROOT
ATOM      8  C   UNL     1      49.158  13.668  16.839  0.00  0.00    -0.123 A 
ATOM      9  C   UNL     1      47.887  13.131  17.082  0.00  0.00    +0.228 A 
ATOM     12  C   UNL     1      46.861  13.935  17.549  0.00  0.00    -0.093 A 
ATOM     13  C   UNL     1      47.084  15.284  17.782  0.00  0.00    +0.214 A 
ATOM     14  C   UNL     1      48.357  15.831  17.542  0.00  0.00    -0.289 A 
ATOM     15  C   UNL     1      48.564  17.268  17.793  0.00  0.00    +0.426 A 
ATOM     16  C   UNL     1      47.458  18.010  18.273  0.00  0.00    -0.142 A 
ATOM     17  C   UNL     1      46.268  17.386  18.474  0.00  0.00    +0.203 A 
ATOM     24  O   UNL     1      49.645  17.797  17.597  0.00  0.00    -0.455 OA
ATOM     25  O   UNL     1      46.090  16.076  18.237  0.00  0.00    -0.218 OA
ATOM     26  C   UNL     1      49.396  15.022  17.069  0.00  0.00    +0.261 A 
ENDROOT
BRANCH   8   7
ATOM      1  C   UNL     1      53.430  10.277  15.030  0.00  0.00    +0.182 C 
ATOM      2  C   UNL     1      52.292  11.171  15.449  0.00  0.00    +0.106 A 
ATOM      3  C   UNL     1      51.464  11.669  14.504  0.00  0.00    -0.074 A 
ATOM      6  C   UNL     1      50.392  12.512  14.904  0.00  0.00    +0.396 A 
ATOM      7  C   UNL     1      50.249  12.796  16.339  0.00  0.00    -0.202 A 
ATOM     29  C   UNL     1      51.149  12.242  17.199  0.00  0.00    +0.317 A 
ATOM     30  O   UNL     1      49.619  12.984  14.086  0.00  0.00    -0.460 OA
ATOM     31  O   UNL     1      52.129  11.453  16.747  0.00  0.00    -0.202 OA
BRANCH   3   4
ATOM      4  O   UNL     1      51.653  11.366  13.191  0.00  0.00    -0.460 OA
ATOM      5  H   UNL     1      52.412  11.810  12.791  0.00  0.00    +0.387 HD
ENDBRANCH   3   4
ENDBRANCH   8   7
BRANCH  17  18
ATOM     18  C   UNL     1      45.124  18.179  18.970  0.00  0.00    -0.073 A 
ATOM     19  C   UNL     1      44.747  19.352  18.313  0.00  0.00    +0.056 A 
ATOM     20  C   UNL     1      43.675  20.085  18.778  0.00  0.00    +0.014 A 
ATOM     21  C   UNL     1      42.982  19.667  19.899  0.00  0.00    +0.037 A 
ATOM     22  C   UNL     1      43.353  18.508  20.559  0.00  0.00    +0.009 A 
ATOM     23  C   UNL     1      44.421  17.762  20.102  0.00  0.00    +0.054 A 
ENDBRANCH  17  18
BRANCH   9  10
ATOM     10  O   UNL     1      47.658  11.812  16.855  0.00  0.00    -0.296 OA
ATOM     11  C   UNL     1      46.752  11.483  15.801  0.00  0.00    +0.256 C 
ENDBRANCH   9  10
BRANCH  26  27
ATOM     27  O   UNL     1      50.624  15.550  16.837  0.00  0.00    -0.462 OA
ATOM     28  H   UNL     1      50.900  16.207  17.491  0.00  0.00    +0.401 HD
ENDBRANCH  26  27
TORSDOF 5
ENDMDL
MODEL 3
REMARK VINA RESULT:      -5.8      1.717      8.772
REMARK  Name = ZINC14441502
REMARK  7 active torsions:
REMARK  status: ('A' for Active; 'I' for Inactive)
REMARK    1  A    between atoms: C1_1  and  C2_2
REMARK    2  A    between atoms: C3_3  and  O7_29
REMARK    3  A    between atoms: C5_6  and  C7_9
REMARK    4  A    between atoms: C8_10  and  O6_27
REMARK    5  A    between atoms: C12_14  and  O3_15
REMARK    6  A    between atoms: C15_19  and  C16_21
REMARK    7  A    between atoms: O6_27  and  C22_28
REMARK                            x       y       z     vdW  Elec       q    Type
REMARK                         _______ _______ _______ _____ _____    ______ ____
ROOT
ATOM      8  C   UNL     1      45.371  19.370  19.883  0.00  0.00    -0.123 A 
ATOM      9  C   UNL     1      45.983  19.538  21.132  0.00  0.00    +0.228 A 
ATOM     12  C   UNL     1      47.270  19.078  21.352  0.00  0.00    -0.093 A 
ATOM     13  C   UNL     1      47.968  18.445  20.334  0.00  0.00    +0.214 A 
ATOM     14  C   UNL     1      47.361  18.271  19.078  0.00  0.00    -0.289 A 
ATOM     15  C   UNL     1      48.126  17.600  18.013  0.00  0.00    +0.426 A 
ATOM     16  C   UNL     1      49.434  17.160  18.331  0.00  0.00    -0.142 A 
ATOM     17  C   UNL     1      49.929  17.376  19.578  0.00  0.00    +0.203 A 
ATOM     24  O   UNL     1      47.652  17.427  16.903  0.00  0.00    -0.455 OA
ATOM     25  O   UNL     1      49.223  17.993  20.539  0.00  0.00    -0.218 OA
ATOM     26  C   UNL     1      46.060  18.735  18.851  0.00  0.00    +0.261 A 
ENDROOT
BRANCH   8   7
ATOM      1  C   UNL     1      39.978  21.169  19.045  0.00  0.00    +0.182 C 
ATOM      2  C   UNL     1      41.411  20.751  19.252  0.00  0.00    +0.106 A 
ATOM      3  C   UNL     1      42.394  21.661  19.074  0.00  0.00    -0.074 A 
ATOM      6  C   UNL     1      43.744  21.262  19.271  0.00  0.00    +0.396 A 
ATOM      7  C   UNL     1      43.991  19.866  19.659  0.00  0.00    -0.202 A 
ATOM     29  C   UNL     1      42.919  19.038  19.804  0.00  0.00    +0.317 A 
ATOM     30  O   UNL     1      44.664  22.050  19.121  0.00  0.00    -0.460 OA
ATOM     31  O   UNL     1      41.676  19.488  19.606  0.00  0.00    -0.202 OA
BRANCH   3   4
ATOM      4  O   UNL     1      42.096  22.939  18.713  0.00  0.00    -0.460 OA
ATOM      5  H   UNL     1      41.197  23.212  18.940  0.00  0.00    +0.387 HD
ENDBRANCH   3   4
ENDBRANCH   8   7
BRANCH  17  18
ATOM     18  C   UNL     1      51.298  16.915  19.889  0.00  0.00    -0.073 A 
ATOM     19  C   UNL     1      52.305  17.010  18.925  0.00  0.00    +0.056 A 
ATOM     20  C   UNL     1      53.582  16.582  19.224  0.00  0.00    +0.014 A 
ATOM     21  C   UNL     1      53.863  16.050  20.469  0.00  0.00    +0.037 A 
ATOM     22  C   UNL     1      52.869  15.947  21.426  0.00  0.00    +0.009 A 
ATOM     23  C   UNL     1      51.588  16.375  21.143  0.00  0.00    +0.054 A 
ENDBRANCH  17  18
BRANCH   9  10
ATOM     10  O   UNL     1      45.309  20.158  22.134  0.00  0.00    -0.296 OA
ATOM     11  C   UNL     1      45.756  21.463  22.505  0.00  0.00    +0.256 C 
ENDBRANCH   9  10
BRANCH  26  27
ATOM     27  O   UNL     1      45.475  18.568  17.639  0.00  0.00    -0.462 OA
ATOM     28  H   UNL     1      44.660  18.048  17.663  0.00  0.00    +0.401 HD
ENDBRANCH  26  27
TORSDOF 5
ENDMDL
MODEL 4
REMARK VINA RESULT:      -5.7      3.549      5.343
REMARK  Name = ZINC14441502
REMARK  7 active torsions:
REMARK  status: ('A' for Active; 'I' for Inactive)
REMARK    1  A    between atoms: C1_1  and  C2_2
REMARK    2  A    between atoms: C3_3  and  O7_29
REMARK    3  A    between atoms: C5_6  and  C7_9
REMARK    4  A    between atoms: C8_10  and  O6_27
REMARK    5  A    between atoms: C12_14  and  O3_15
REMARK    6  A    between atoms: C15_19  and  C16_21
REMARK    7  A    between atoms: O6_27  and  C22_28
REMARK                            x       y       z     vdW  Elec       q    Type
REMARK                         _______ _______ _______ _____ _____    ______ ____
ROOT
ATOM      8  C   UNL     1      49.514  14.337  16.651  0.00  0.00    -0.123 A 
ATOM      9  C   UNL     1      48.140  14.112  16.490  0.00  0.00    +0.228 A 
ATOM     12  C   UNL     1      47.221  15.080  16.855  0.00  0.00    -0.093 A 
ATOM     13  C   UNL     1      47.653  16.287  17.385  0.00  0.00    +0.214 A 
ATOM     14  C   UNL     1      49.030  16.522  17.551  0.00  0.00    -0.289 A 
ATOM     15  C   UNL     1      49.461  17.814  18.112  0.00  0.00    +0.426 A 
ATOM     16  C   UNL     1      48.450  18.742  18.459  0.00  0.00    -0.142 A 
ATOM     17  C   UNL     1      47.145  18.418  18.260  0.00  0.00    +0.203 A 
ATOM     24  O   UNL     1      50.642  18.073  18.273  0.00  0.00    -0.455 OA
ATOM     25  O   UNL     1      46.765  17.238  17.743  0.00  0.00    -0.218 OA
ATOM     26  C   UNL     1      49.962  15.545  17.184  0.00  0.00    +0.261 A 
ENDROOT
BRANCH   8   7
ATOM      1  C   UNL     1      53.301  10.340  15.006  0.00  0.00    +0.182 C 
ATOM      2  C   UNL     1      52.305  11.363  15.490  0.00  0.00    +0.106 A 
ATOM      3  C   UNL     1      51.833  11.275  16.752  0.00  0.00    -0.074 A 
ATOM      6  C   UNL     1      50.895  12.242  17.205  0.00  0.00    +0.396 A 
ATOM      7  C   UNL     1      50.489  13.291  16.258  0.00  0.00    -0.202 A 
ATOM     29  C   UNL     1      51.030  13.275  15.008  0.00  0.00    +0.317 A 
ATOM     30  O   UNL     1      50.441  12.202  18.337  0.00  0.00    -0.460 OA
ATOM     31  O   UNL     1      51.912  12.334  14.657  0.00  0.00    -0.202 OA
BRANCH   3   4
ATOM      4  O   UNL     1      52.250  10.277  17.578  0.00  0.00    -0.460 OA
ATOM      5  H   UNL     1      51.562   9.633  17.794  0.00  0.00    +0.387 HD
ENDBRANCH   3   4
ENDBRANCH   8   7
BRANCH  17  18
ATOM     18  C   UNL     1      46.105  19.402  18.623  0.00  0.00    -0.073 A 
ATOM     19  C   UNL     1      44.780  18.992  18.790  0.00  0.00    +0.056 A 
ATOM     20  C   UNL     1      43.815  19.915  19.134  0.00  0.00    +0.014 A 
ATOM     21  C   UNL     1      44.154  21.246  19.301  0.00  0.00    +0.037 A 
ATOM     22  C   UNL     1      45.463  21.660  19.130  0.00  0.00    +0.009 A 
ATOM     23  C   UNL     1      46.440  20.747  18.791  0.00  0.00    +0.054 A 
ENDBRANCH  17  18
BRANCH   9  10
ATOM     10  O   UNL     1      47.707  12.935  15.971  0.00  0.00    -0.296 OA
ATOM     11  C   UNL     1      46.726  12.217  16.721  0.00  0.00    +0.256 C 
ENDBRANCH   9  10
BRANCH  26  27
ATOM     27  O   UNL     1      51.290  15.771  17.344  0.00  0.00    -0.462 OA
ATOM     28  H   UNL     1      51.855  15.190  16.816  0.00  0.00    +0.401 HD
ENDBRANCH  26  27
TORSDOF 5
ENDMDL
MODEL 5
REMARK VINA RESULT:      -5.7      1.651      2.919
REMARK  Name = ZINC14441502
REMARK  7 active torsions:
REMARK  status: ('A' for Active; 'I' for Inactive)
REMARK    1  A    between atoms: C1_1  and  C2_2
REMARK    2  A    between atoms: C3_3  and  O7_29
REMARK    3  A    between atoms: C5_6  and  C7_9
REMARK    4  A    between atoms: C8_10  and  O6_27
REMARK    5  A    between atoms: C12_14  and  O3_15
REMARK    6  A    between atoms: C15_19  and  C16_21
REMARK    7  A    between atoms: O6_27  and  C22_28
REMARK                            x       y       z     vdW  Elec       q    Type
REMARK                         _______ _______ _______ _____ _____    ______ ____
ROOT
ATOM      8  C   UNL     1      49.625  18.488  19.290  0.00  0.00    -0.123 A 
ATOM      9  C   UNL     1      49.570  19.880  19.134  0.00  0.00    +0.228 A 
ATOM     12  C   UNL     1      48.351  20.529  19.044  0.00  0.00    -0.093 A 
ATOM     13  C   UNL     1      47.169  19.806  19.108  0.00  0.00    +0.214 A 
ATOM     14  C   UNL     1      47.215  18.410  19.264  0.00  0.00    -0.289 A 
ATOM     15  C   UNL     1      45.945  17.667  19.335  0.00  0.00    +0.426 A 
ATOM     16  C   UNL     1      44.747  18.416  19.229  0.00  0.00    -0.142 A 
ATOM     17  C   UNL     1      44.811  19.765  19.079  0.00  0.00    +0.203 A 
ATOM     24  O   UNL     1      45.924  16.456  19.474  0.00  0.00    -0.455 OA
ATOM     25  O   UNL     1      45.975  20.431  19.021  0.00  0.00    -0.218 OA
ATOM     26  C   UNL     1      48.445  17.749  19.355  0.00  0.00    +0.261 A 
ENDROOT
BRANCH   8   7
ATOM      1  C   UNL     1      54.706  15.813  19.523  0.00  0.00    +0.182 C 
ATOM      2  C   UNL     1      53.376  16.523  19.519  0.00  0.00    +0.106 A 
ATOM      3  C   UNL     1      52.865  16.968  20.688  0.00  0.00    -0.074 A 
ATOM      6  C   UNL     1      51.611  17.637  20.680  0.00  0.00    +0.396 A 
ATOM      7  C   UNL     1      50.937  17.803  19.385  0.00  0.00    -0.202 A 
ATOM     29  C   UNL     1      51.547  17.307  18.272  0.00  0.00    +0.317 A 
ATOM     30  O   UNL     1      51.111  18.056  21.712  0.00  0.00    -0.460 OA
ATOM     31  O   UNL     1      52.732  16.694  18.359  0.00  0.00    -0.202 OA
BRANCH   3   4
ATOM      4  O   UNL     1      53.542  16.780  21.854  0.00  0.00    -0.460 OA
ATOM      5  H   UNL     1      53.691  17.592  22.357  0.00  0.00    +0.387 HD
ENDBRANCH   3   4
ENDBRANCH   8   7
BRANCH  17  18
ATOM     18  C   UNL     1      43.551  20.529  18.978  0.00  0.00    -0.073 A 
ATOM     19  C   UNL     1      43.510  21.869  19.371  0.00  0.00    +0.056 A 
ATOM     20  C   UNL     1      42.331  22.578  19.269  0.00  0.00    +0.014 A 
ATOM     21  C   UNL     1      41.189  21.962  18.791  0.00  0.00    +0.037 A 
ATOM     22  C   UNL     1      41.220  20.633  18.405  0.00  0.00    +0.009 A 
ATOM     23  C   UNL     1      42.394  19.913  18.497  0.00  0.00    +0.054 A 
ENDBRANCH  17  18
BRANCH   9  10
ATOM     10  O   UNL     1      50.721  20.596  19.071  0.00  0.00    -0.296 OA
ATOM     11  C   UNL     1      51.058  21.174  17.809  0.00  0.00    +0.256 C 
ENDBRANCH   9  10
BRANCH  26  27
ATOM     27  O   UNL     1      48.490  16.402  19.507  0.00  0.00    -0.462 OA
ATOM     28  H   UNL     1      47.906  16.064  20.200  0.00  0.00    +0.401 HD
ENDBRANCH  26  27
TORSDOF 5
ENDMDL
MODEL 6
REMARK VINA RESULT:      -5.7      4.000      5.842
REMARK  Name = ZINC14441502
REMARK  7 active torsions:
REMARK  status: ('A' for Active; 'I' for Inactive)
REMARK    1  A    between atoms: C1_1  and  C2_2
REMARK    2  A    between atoms: C3_3  and  O7_29
REMARK    3  A    between atoms: C5_6  and  C7_9
REMARK    4  A    between atoms: C8_10  and  O6_27
REMARK    5  A    between atoms: C12_14  and  O3_15
REMARK    6  A    between atoms: C15_19  and  C16_21
REMARK    7  A    between atoms: O6_27  and  C22_28
REMARK                            x       y       z     vdW  Elec       q    Type
REMARK                         _______ _______ _______ _____ _____    ______ ____
ROOT
ATOM      8  C   UNL     1      49.765  13.968  17.139  0.00  0.00    -0.123 A 
ATOM      9  C   UNL     1      50.042  15.341  17.153  0.00  0.00    +0.228 A 
ATOM     12  C   UNL     1      49.134  16.237  17.690  0.00  0.00    -0.093 A 
ATOM     13  C   UNL     1      47.936  15.781  18.221  0.00  0.00    +0.214 A 
ATOM     14  C   UNL     1      47.649  14.405  18.210  0.00  0.00    -0.289 A 
ATOM     15  C   UNL     1      46.372  13.948  18.785  0.00  0.00    +0.426 A 
ATOM     16  C   UNL     1      45.503  14.936  19.308  0.00  0.00    -0.142 A 
ATOM     17  C   UNL     1      45.875  16.243  19.269  0.00  0.00    +0.203 A 
ATOM     24  O   UNL     1      46.073  12.766  18.807  0.00  0.00    -0.455 OA
ATOM     25  O   UNL     1      47.044  16.647  18.747  0.00  0.00    -0.218 OA
ATOM     26  C   UNL     1      48.565  13.496  17.668  0.00  0.00    +0.261 A 
ENDROOT
BRANCH   8   7
ATOM      1  C   UNL     1      53.623  10.277  15.015  0.00  0.00    +0.182 C 
ATOM      2  C   UNL     1      52.587  11.248  15.520  0.00  0.00    +0.106 A 
ATOM      3  C   UNL     1      51.667  11.734  14.658  0.00  0.00    -0.074 A 
ATOM      6  C   UNL     1      50.691  12.649  15.138  0.00  0.00    +0.396 A 
ATOM      7  C   UNL     1      50.746  13.018  16.560  0.00  0.00    -0.202 A 
ATOM     29  C   UNL     1      51.723  12.467  17.332  0.00  0.00    +0.317 A 
ATOM     30  O   UNL     1      49.841  13.114  14.396  0.00  0.00    -0.460 OA
ATOM     31  O   UNL     1      52.604  11.607  16.808  0.00  0.00    -0.202 OA
BRANCH   3   4
ATOM      4  O   UNL     1      51.674  11.352  13.352  0.00  0.00    -0.460 OA
ATOM      5  H   UNL     1      51.573  12.083  12.728  0.00  0.00    +0.387 HD
ENDBRANCH   3   4
ENDBRANCH   8   7
BRANCH  17  18
ATOM     18  C   UNL     1      44.958  17.259  19.826  0.00  0.00    -0.073 A 
ATOM     19  C   UNL     1      44.246  16.994  20.998  0.00  0.00    +0.056 A 
ATOM     20  C   UNL     1      43.396  17.949  21.515  0.00  0.00    +0.014 A 
ATOM     21  C   UNL     1      43.237  19.161  20.869  0.00  0.00    +0.037 A 
ATOM     22  C   UNL     1      43.934  19.429  19.703  0.00  0.00    +0.009 A 
ATOM     23  C   UNL     1      44.793  18.485  19.177  0.00  0.00    +0.054 A 
ENDBRANCH  17  18
BRANCH   9  10
ATOM     10  O   UNL     1      51.213  15.797  16.637  0.00  0.00    -0.296 OA
ATOM     11  C   UNL     1      51.788  16.949  17.256  0.00  0.00    +0.256 C 
ENDBRANCH   9  10
BRANCH  26  27
ATOM     27  O   UNL     1      48.288  12.168  17.658  0.00  0.00    -0.462 OA
ATOM     28  H   UNL     1      47.749  11.873  18.405  0.00  0.00    +0.401 HD
ENDBRANCH  26  27
TORSDOF 5
ENDMDL
MODEL 7
REMARK VINA RESULT:      -5.7      5.414      8.301
REMARK  Name = ZINC14441502
REMARK  7 active torsions:
REMARK  status: ('A' for Active; 'I' for Inactive)
REMARK    1  A    between atoms: C1_1  and  C2_2
REMARK    2  A    between atoms: C3_3  and  O7_29
REMARK    3  A    between atoms: C5_6  and  C7_9
REMARK    4  A    between atoms: C8_10  and  O6_27
REMARK    5  A    between atoms: C12_14  and  O3_15
REMARK    6  A    between atoms: C15_19  and  C16_21
REMARK    7  A    between atoms: O6_27  and  C22_28
REMARK                            x       y       z     vdW  Elec       q    Type
REMARK                         _______ _______ _______ _____ _____    ______ ____
ROOT
ATOM      8  C   UNL     1      49.629  12.517  14.636  0.00  0.00    -0.123 A 
ATOM      9  C   UNL     1      50.229  13.529  15.397  0.00  0.00    +0.228 A 
ATOM     12  C   UNL     1      49.585  14.052  16.504  0.00  0.00    -0.093 A 
ATOM     13  C   UNL     1      48.335  13.578  16.873  0.00  0.00    +0.214 A 
ATOM     14  C   UNL     1      47.724  12.564  16.115  0.00  0.00    -0.289 A 
ATOM     15  C   UNL     1      46.398  12.075  16.531  0.00  0.00    +0.426 A 
ATOM     16  C   UNL     1      45.815  12.673  17.675  0.00  0.00    -0.142 A 
ATOM     17  C   UNL     1      46.489  13.649  18.339  0.00  0.00    +0.203 A 
ATOM     24  O   UNL     1      45.824  11.194  15.914  0.00  0.00    -0.455 OA
ATOM     25  O   UNL     1      47.699  14.082  17.952  0.00  0.00    -0.218 OA
ATOM     26  C   UNL     1      48.372  12.032  14.994  0.00  0.00    +0.261 A 
ENDROOT
BRANCH   8   7
ATOM      1  C   UNL     1      52.385  10.277  10.119  0.00  0.00    +0.182 C 
ATOM      2  C   UNL     1      51.642  10.907  11.269  0.00  0.00    +0.106 A 
ATOM      3  C   UNL     1      50.938  12.039  11.055  0.00  0.00    -0.074 A 
ATOM      6  C   UNL     1      50.239  12.630  12.143  0.00  0.00    +0.396 A 
ATOM      7  C   UNL     1      50.328  11.964  13.450  0.00  0.00    -0.202 A 
ATOM     29  C   UNL     1      51.073  10.828  13.546  0.00  0.00    +0.317 A 
ATOM     30  O   UNL     1      49.590  13.653  11.997  0.00  0.00    -0.460 OA
ATOM     31  O   UNL     1      51.699  10.330  12.475  0.00  0.00    -0.202 OA
BRANCH   3   4
ATOM      4  O   UNL     1      50.898  12.605   9.818  0.00  0.00    -0.460 OA
ATOM      5  H   UNL     1      50.037  12.977   9.584  0.00  0.00    +0.387 HD
ENDBRANCH   3   4
ENDBRANCH   8   7
BRANCH  17  18
ATOM     18  C   UNL     1      45.866  14.256  19.533  0.00  0.00    -0.073 A 
ATOM     19  C   UNL     1      45.464  15.593  19.511  0.00  0.00    +0.056 A 
ATOM     20  C   UNL     1      44.879  16.151  20.628  0.00  0.00    +0.014 A 
ATOM     21  C   UNL     1      44.701  15.395  21.772  0.00  0.00    +0.037 A 
ATOM     22  C   UNL     1      45.104  14.071  21.803  0.00  0.00    +0.009 A 
ATOM     23  C   UNL     1      45.686  13.497  20.691  0.00  0.00    +0.054 A 
ENDBRANCH  17  18
BRANCH   9  10
ATOM     10  O   UNL     1      51.454  13.998  15.045  0.00  0.00    -0.296 OA
ATOM     11  C   UNL     1      51.920  15.165  15.724  0.00  0.00    +0.256 C 
ENDBRANCH   9  10
BRANCH  26  27
ATOM     27  O   UNL     1      47.783  11.052  14.263  0.00  0.00    -0.462 OA
ATOM     28  H   UNL     1      47.809  10.180  14.680  0.00  0.00    +0.401 HD
ENDBRANCH  26  27
TORSDOF 5
ENDMDL
MODEL 8
REMARK VINA RESULT:      -5.5      3.358      5.616
REMARK  Name = ZINC14441502
REMARK  7 active torsions:
REMARK  status: ('A' for Active; 'I' for Inactive)
REMARK    1  A    between atoms: C1_1  and  C2_2
REMARK    2  A    between atoms: C3_3  and  O7_29
REMARK    3  A    between atoms: C5_6  and  C7_9
REMARK    4  A    between atoms: C8_10  and  O6_27
REMARK    5  A    between atoms: C12_14  and  O3_15
REMARK    6  A    between atoms: C15_19  and  C16_21
REMARK    7  A    between atoms: O6_27  and  C22_28
REMARK                            x       y       z     vdW  Elec       q    Type
REMARK                         _______ _______ _______ _____ _____    ______ ____
ROOT
ATOM      8  C   UNL     1      50.308  15.172  17.236  0.00  0.00    -0.123 A 
ATOM      9  C   UNL     1      51.083  16.035  18.022  0.00  0.00    +0.228 A 
ATOM     12  C   UNL     1      50.527  17.178  18.569  0.00  0.00    -0.093 A 
ATOM     13  C   UNL     1      49.192  17.481  18.344  0.00  0.00    +0.214 A 
ATOM     14  C   UNL     1      48.407  16.621  17.555  0.00  0.00    -0.289 A 
ATOM     15  C   UNL     1      46.991  16.964  17.336  0.00  0.00    +0.426 A 
ATOM     16  C   UNL     1      46.511  18.155  17.932  0.00  0.00    -0.142 A 
ATOM     17  C   UNL     1      47.353  18.919  18.677  0.00  0.00    +0.203 A 
ATOM     24  O   UNL     1      46.262  16.252  16.666  0.00  0.00    -0.455 OA
ATOM     25  O   UNL     1      48.640  18.593  18.873  0.00  0.00    -0.218 OA
ATOM     26  C   UNL     1      48.966  15.464  17.000  0.00  0.00    +0.261 A 
ENDROOT
BRANCH   8   7
ATOM      1  C   UNL     1      52.689  10.508  14.869  0.00  0.00    +0.182 C 
ATOM      2  C   UNL     1      52.053  11.700  15.537  0.00  0.00    +0.106 A 
ATOM      3  C   UNL     1      51.542  11.561  16.780  0.00  0.00    -0.074 A 
ATOM      6  C   UNL     1      50.943  12.688  17.407  0.00  0.00    +0.396 A 
ATOM      7  C   UNL     1      50.915  13.950  16.654  0.00  0.00    -0.202 A 
ATOM     29  C   UNL     1      51.459  13.968  15.405  0.00  0.00    +0.317 A 
ATOM     30  O   UNL     1      50.468  12.610  18.528  0.00  0.00    -0.460 OA
ATOM     31  O   UNL     1      52.009  12.867  14.884  0.00  0.00    -0.202 OA
BRANCH   3   4
ATOM      4  O   UNL     1      51.600  10.362  17.422  0.00  0.00    -0.460 OA
ATOM      5  H   UNL     1      52.488  10.114  17.710  0.00  0.00    +0.387 HD
ENDBRANCH   3   4
ENDBRANCH   8   7
BRANCH  17  18
ATOM     18  C   UNL     1      46.832  20.155  19.296  0.00  0.00    -0.073 A 
ATOM     19  C   UNL     1      47.469  20.702  20.412  0.00  0.00    +0.056 A 
ATOM     20  C   UNL     1      46.979  21.859  20.982  0.00  0.00    +0.014 A 
ATOM     21  C   UNL     1      45.854  22.470  20.459  0.00  0.00    +0.037 A 
ATOM     22  C   UNL     1      45.214  21.929  19.357  0.00  0.00    +0.009 A 
ATOM     23  C   UNL     1      45.695  20.775  18.773  0.00  0.00    +0.054 A 
ENDBRANCH  17  18
BRANCH   9  10
ATOM     10  O   UNL     1      52.390  15.746  18.250  0.00  0.00    -0.296 OA
ATOM     11  C   UNL     1      53.130  16.674  19.045  0.00  0.00    +0.256 C 
ENDBRANCH   9  10
BRANCH  26  27
ATOM     27  O   UNL     1      48.208  14.634  16.240  0.00  0.00    -0.462 OA
ATOM     28  H   UNL     1      48.697  13.890  15.864  0.00  0.00    +0.401 HD
ENDBRANCH  26  27
TORSDOF 5
ENDMDL
MODEL 9
REMARK VINA RESULT:      -5.5      3.224      7.663
REMARK  Name = ZINC14441502
REMARK  7 active torsions:
REMARK  status: ('A' for Active; 'I' for Inactive)
REMARK    1  A    between atoms: C1_1  and  C2_2
REMARK    2  A    between atoms: C3_3  and  O7_29
REMARK    3  A    between atoms: C5_6  and  C7_9
REMARK    4  A    between atoms: C8_10  and  O6_27
REMARK    5  A    between atoms: C12_14  and  O3_15
REMARK    6  A    between atoms: C15_19  and  C16_21
REMARK    7  A    between atoms: O6_27  and  C22_28
REMARK                            x       y       z     vdW  Elec       q    Type
REMARK                         _______ _______ _______ _____ _____    ______ ____
ROOT
ATOM      8  C   UNL     1      45.714  18.957  19.721  0.00  0.00    -0.123 A 
ATOM      9  C   UNL     1      44.893  18.030  20.378  0.00  0.00    +0.228 A 
ATOM     12  C   UNL     1      44.972  16.682  20.074  0.00  0.00    -0.093 A 
ATOM     13  C   UNL     1      45.868  16.235  19.113  0.00  0.00    +0.214 A 
ATOM     14  C   UNL     1      46.694  17.158  18.449  0.00  0.00    -0.289 A 
ATOM     15  C   UNL     1      47.639  16.655  17.437  0.00  0.00    +0.426 A 
ATOM     16  C   UNL     1      47.647  15.261  17.190  0.00  0.00    -0.142 A 
ATOM     17  C   UNL     1      46.806  14.452  17.887  0.00  0.00    +0.203 A 
ATOM     24  O   UNL     1      48.383  17.410  16.833  0.00  0.00    -0.455 OA
ATOM     25  O   UNL     1      45.952  14.922  18.810  0.00  0.00    -0.218 OA
ATOM     26  C   UNL     1      46.617  18.522  18.753  0.00  0.00    +0.261 A 
ENDROOT
BRANCH   8   7
ATOM      1  C   UNL     1      45.459  24.533  21.087  0.00  0.00    +0.182 C 
ATOM      2  C   UNL     1      45.478  23.078  20.697  0.00  0.00    +0.106 A 
ATOM      3  C   UNL     1      44.508  22.602  19.886  0.00  0.00    -0.074 A 
ATOM      6  C   UNL     1      44.530  21.228  19.519  0.00  0.00    +0.396 A 
ATOM      7  C   UNL     1      45.620  20.399  20.054  0.00  0.00    -0.202 A 
ATOM     29  C   UNL     1      46.539  20.989  20.868  0.00  0.00    +0.317 A 
ATOM     30  O   UNL     1      43.674  20.755  18.789  0.00  0.00    -0.460 OA
ATOM     31  O   UNL     1      46.454  22.291  21.163  0.00  0.00    -0.202 OA
BRANCH   3   4
ATOM      4  O   UNL     1      43.526  23.425  19.426  0.00  0.00    -0.460 OA
ATOM      5  H   UNL     1      43.597  23.632  18.485  0.00  0.00    +0.387 HD
ENDBRANCH   3   4
ENDBRANCH   8   7
BRANCH  17  18
ATOM     18  C   UNL     1      46.833  13.000  17.620  0.00  0.00    -0.073 A 
ATOM     19  C   UNL     1      45.867  12.421  16.794  0.00  0.00    +0.056 A 
ATOM     20  C   UNL     1      45.901  11.065  16.545  0.00  0.00    +0.014 A 
ATOM     21  C   UNL     1      46.882  10.277  17.119  0.00  0.00    +0.037 A 
ATOM     22  C   UNL     1      47.839  10.843  17.943  0.00  0.00    +0.009 A 
ATOM     23  C   UNL     1      47.820  12.199  18.198  0.00  0.00    +0.054 A 
ENDBRANCH  17  18
BRANCH   9  10
ATOM     10  O   UNL     1      44.015  18.458  21.321  0.00  0.00    -0.296 OA
ATOM     11  C   UNL     1      43.235  17.459  21.980  0.00  0.00    +0.256 C 
ENDBRANCH   9  10
BRANCH  26  27
ATOM     27  O   UNL     1      47.415  19.412  18.112  0.00  0.00    -0.462 OA
ATOM     28  H   UNL     1      46.983  20.254  17.910  0.00  0.00    +0.401 HD
ENDBRANCH  26  27
TORSDOF 5
ENDMDL
