MODEL 1
REMARK VINA RESULT:      -6.8      0.000      0.000
REMARK  Name = ZINC95486079
REMARK  9 active torsions:
REMARK  status: ('A' for Active; 'I' for Inactive)
REMARK    1  A    between atoms: C1_1  and  C2_2
REMARK    2  A    between atoms: C2_2  and  C25_30
REMARK    3  A    between atoms: C3_3  and  C4_4
REMARK    4  A    between atoms: C4_4  and  C5_5
REMARK    5  A    between atoms: C18_22  and  O3_29
REMARK    6  A    between atoms: C19_23  and  C20_24
REMARK    7  A    between atoms: C20_24  and  C21_25
REMARK    8  A    between atoms: C22_26  and  C23_27
REMARK    9  A    between atoms: C22_26  and  C24_28
REMARK                            x       y       z     vdW  Elec       q    Type
REMARK                         _______ _______ _______ _____ _____    ______ ____
ROOT
ATOM      6  C   UNL     1      43.868  19.161  19.937  0.00  0.00    -0.033 A 
ATOM      7  C   UNL     1      44.535  19.447  18.760  0.00  0.00    -0.015 A 
ATOM      8  C   UNL     1      45.918  19.547  18.760  0.00  0.00    +0.073 A 
ATOM      9  C   UNL     1      46.614  19.356  19.923  0.00  0.00    -0.163 A 
ATOM     10  C   UNL     1      45.953  19.048  21.121  0.00  0.00    +0.145 A 
ATOM     11  O   UNL     1      46.650  18.810  22.258  0.00  0.00    -0.324 OA
ATOM     12  C   UNL     1      47.930  19.406  22.505  0.00  0.00    +0.273 C 
ATOM     13  C   UNL     1      48.286  20.311  21.352  0.00  0.00    -0.017 C 
ATOM     14  C   UNL     1      49.686  20.765  21.172  0.00  0.00    -0.161 A 
ATOM     15  C   UNL     1      50.662  21.170  22.056  0.00  0.00    +0.089 A 
ATOM     16  C   UNL     1      51.887  21.550  21.525  0.00  0.00    -0.033 A 
ATOM     17  C   UNL     1      52.121  21.524  20.161  0.00  0.00    +0.142 A 
ATOM     20  C   UNL     1      51.143  21.106  19.256  0.00  0.00    -0.109 A 
ATOM     26  C   UNL     1      49.915  20.720  19.777  0.00  0.00    +0.118 A 
ATOM     27  O   UNL     1      48.811  20.269  19.115  0.00  0.00    -0.272 OA
ATOM     28  C   UNL     1      48.098  19.465  20.045  0.00  0.00    +0.222 C 
ATOM     29  C   UNL     1      44.567  18.969  21.112  0.00  0.00    -0.009 A 
ENDROOT
BRANCH  17  18
ATOM     18  O   UNL     1      53.336  21.911  19.690  0.00  0.00    -0.491 OA
ATOM     19  H   UNL     1      53.449  22.869  19.636  0.00  0.00    +0.393 HD
ENDBRANCH  17  18
BRANCH   6   5
ATOM      5  C   UNL     1      42.364  19.064  19.939  0.00  0.00    +0.110 C 
BRANCH   5   4
ATOM      1  C   UNL     1      40.597  19.434  17.774  0.00  0.00    +0.074 C 
ATOM      2  C   UNL     1      40.997  20.607  18.631  0.00  0.00    -0.126 C 
ATOM      3  C   UNL     1      40.503  21.990  18.293  0.00  0.00    +0.074 C 
ATOM      4  C   UNL     1      41.773  20.424  19.669  0.00  0.00    -0.054 C 
ENDBRANCH   5   4
ENDBRANCH   6   5
BRANCH  20  21
ATOM     21  C   UNL     1      51.406  21.081  17.771  0.00  0.00    +0.125 C 
BRANCH  21  22
ATOM     22  C   UNL     1      51.675  19.665  17.333  0.00  0.00    -0.051 C 
ATOM     23  C   UNL     1      51.778  19.382  16.058  0.00  0.00    -0.125 C 
ATOM     24  C   UNL     1      52.187  17.998  15.624  0.00  0.00    +0.073 C 
ATOM     25  C   UNL     1      51.488  20.441  15.026  0.00  0.00    +0.074 C 
ENDBRANCH  21  22
ENDBRANCH  20  21
TORSDOF 5
ENDMDL
MODEL 2
REMARK VINA RESULT:      -6.7      2.607      3.580
REMARK  Name = ZINC95486079
REMARK  9 active torsions:
REMARK  status: ('A' for Active; 'I' for Inactive)
REMARK    1  A    between atoms: C1_1  and  C2_2
REMARK    2  A    between atoms: C2_2  and  C25_30
REMARK    3  A    between atoms: C3_3  and  C4_4
REMARK    4  A    between atoms: C4_4  and  C5_5
REMARK    5  A    between atoms: C18_22  and  O3_29
REMARK    6  A    between atoms: C19_23  and  C20_24
REMARK    7  A    between atoms: C20_24  and  C21_25
REMARK    8  A    between atoms: C22_26  and  C23_27
REMARK    9  A    between atoms: C22_26  and  C24_28
REMARK                            x       y       z     vdW  Elec       q    Type
REMARK                         _______ _______ _______ _____ _____    ______ ____
ROOT
ATOM      6  C   UNL     1      44.658  19.896  19.574  0.00  0.00    -0.033 A 
ATOM      7  C   UNL     1      45.797  20.679  19.587  0.00  0.00    -0.015 A 
ATOM      8  C   UNL     1      47.007  20.142  19.173  0.00  0.00    +0.073 A 
ATOM      9  C   UNL     1      47.063  18.843  18.748  0.00  0.00    -0.163 A 
ATOM     10  C   UNL     1      45.913  18.040  18.711  0.00  0.00    +0.145 A 
ATOM     11  O   UNL     1      45.966  16.771  18.241  0.00  0.00    -0.324 OA
ATOM     12  C   UNL     1      47.155  15.976  18.327  0.00  0.00    +0.273 C 
ATOM     13  C   UNL     1      48.230  16.766  19.031  0.00  0.00    -0.017 C 
ATOM     14  C   UNL     1      49.646  16.337  18.939  0.00  0.00    -0.161 A 
ATOM     15  C   UNL     1      50.254  15.101  18.963  0.00  0.00    +0.089 A 
ATOM     16  C   UNL     1      51.638  15.069  18.863  0.00  0.00    -0.033 A 
ATOM     17  C   UNL     1      52.380  16.232  18.745  0.00  0.00    +0.142 A 
ATOM     20  C   UNL     1      51.774  17.489  18.710  0.00  0.00    -0.109 A 
ATOM     26  C   UNL     1      50.389  17.532  18.805  0.00  0.00    +0.118 A 
ATOM     27  O   UNL     1      49.566  18.620  18.786  0.00  0.00    -0.272 OA
ATOM     28  C   UNL     1      48.312  18.154  18.305  0.00  0.00    +0.222 C 
ATOM     29  C   UNL     1      44.712  18.584  19.146  0.00  0.00    -0.009 A 
ENDROOT
BRANCH  17  18
ATOM     18  O   UNL     1      53.734  16.148  18.657  0.00  0.00    -0.491 OA
ATOM     19  H   UNL     1      54.047  15.623  17.909  0.00  0.00    +0.393 HD
ENDBRANCH  17  18
BRANCH   6   5
ATOM      5  C   UNL     1      43.346  20.477  20.035  0.00  0.00    +0.110 C 
BRANCH   5   4
ATOM      1  C   UNL     1      41.489  22.148  18.730  0.00  0.00    +0.074 C 
ATOM      2  C   UNL     1      41.326  20.651  18.675  0.00  0.00    -0.126 C 
ATOM      3  C   UNL     1      40.135  20.048  17.976  0.00  0.00    +0.074 C 
ATOM      4  C   UNL     1      42.220  19.875  19.234  0.00  0.00    -0.054 C 
ENDBRANCH   5   4
ENDBRANCH   6   5
BRANCH  20  21
ATOM     21  C   UNL     1      52.589  18.752  18.581  0.00  0.00    +0.125 C 
BRANCH  21  22
ATOM     22  C   UNL     1      52.272  19.421  17.269  0.00  0.00    -0.051 C 
ATOM     23  C   UNL     1      51.794  20.641  17.255  0.00  0.00    -0.125 C 
ATOM     24  C   UNL     1      51.610  21.364  15.946  0.00  0.00    +0.073 C 
ATOM     25  C   UNL     1      51.429  21.322  18.549  0.00  0.00    +0.074 C 
ENDBRANCH  21  22
ENDBRANCH  20  21
TORSDOF 5
ENDMDL
MODEL 3
REMARK VINA RESULT:      -6.3      2.296      3.014
REMARK  Name = ZINC95486079
REMARK  9 active torsions:
REMARK  status: ('A' for Active; 'I' for Inactive)
REMARK    1  A    between atoms: C1_1  and  C2_2
REMARK    2  A    between atoms: C2_2  and  C25_30
REMARK    3  A    between atoms: C3_3  and  C4_4
REMARK    4  A    between atoms: C4_4  and  C5_5
REMARK    5  A    between atoms: C18_22  and  O3_29
REMARK    6  A    between atoms: C19_23  and  C20_24
REMARK    7  A    between atoms: C20_24  and  C21_25
REMARK    8  A    between atoms: C22_26  and  C23_27
REMARK    9  A    between atoms: C22_26  and  C24_28
REMARK                            x       y       z     vdW  Elec       q    Type
REMARK                         _______ _______ _______ _____ _____    ______ ____
ROOT
ATOM      6  C   UNL     1      43.661  19.347  20.719  0.00  0.00    -0.033 A 
ATOM      7  C   UNL     1      44.082  18.299  19.922  0.00  0.00    -0.015 A 
ATOM      8  C   UNL     1      45.429  18.159  19.623  0.00  0.00    +0.073 A 
ATOM      9  C   UNL     1      46.333  19.056  20.125  0.00  0.00    -0.163 A 
ATOM     10  C   UNL     1      45.924  20.114  20.950  0.00  0.00    +0.145 A 
ATOM     11  O   UNL     1      46.829  20.968  21.486  0.00  0.00    -0.324 OA
ATOM     12  C   UNL     1      48.075  21.260  20.840  0.00  0.00    +0.273 C 
ATOM     13  C   UNL     1      48.140  20.516  19.530  0.00  0.00    -0.017 C 
ATOM     14  C   UNL     1      49.440  20.348  18.837  0.00  0.00    -0.161 A 
ATOM     15  C   UNL     1      50.517  21.186  18.648  0.00  0.00    +0.089 A 
ATOM     16  C   UNL     1      51.591  20.692  17.920  0.00  0.00    -0.033 A 
ATOM     17  C   UNL     1      51.583  19.408  17.403  0.00  0.00    +0.142 A 
ATOM     20  C   UNL     1      50.501  18.546  17.597  0.00  0.00    -0.109 A 
ATOM     26  C   UNL     1      49.423  19.029  18.327  0.00  0.00    +0.118 A 
ATOM     27  O   UNL     1      48.264  18.392  18.660  0.00  0.00    -0.272 OA
ATOM     28  C   UNL     1      47.800  19.018  19.849  0.00  0.00    +0.222 C 
ATOM     29  C   UNL     1      44.571  20.253  21.226  0.00  0.00    -0.009 A 
ENDROOT
BRANCH  17  18
ATOM     18  O   UNL     1      52.656  18.973  16.692  0.00  0.00    -0.491 OA
ATOM     19  H   UNL     1      52.845  19.499  15.904  0.00  0.00    +0.393 HD
ENDBRANCH  17  18
BRANCH   6   5
ATOM      5  C   UNL     1      42.196  19.505  21.034  0.00  0.00    +0.110 C 
BRANCH   5   4
ATOM      1  C   UNL     1      41.702  21.443  19.047  0.00  0.00    +0.074 C 
ATOM      2  C   UNL     1      41.104  20.066  18.923  0.00  0.00    -0.126 C 
ATOM      3  C   UNL     1      40.189  19.742  17.770  0.00  0.00    +0.074 C 
ATOM      4  C   UNL     1      41.380  19.150  19.817  0.00  0.00    -0.054 C 
ENDBRANCH   5   4
ENDBRANCH   6   5
BRANCH  20  21
ATOM     21  C   UNL     1      50.499  17.148  17.030  0.00  0.00    +0.125 C 
BRANCH  21  22
ATOM     22  C   UNL     1      50.706  16.155  18.144  0.00  0.00    -0.051 C 
ATOM     23  C   UNL     1      49.875  15.154  18.292  0.00  0.00    -0.125 C 
ATOM     24  C   UNL     1      50.159  14.083  19.314  0.00  0.00    +0.073 C 
ATOM     25  C   UNL     1      48.634  15.073  17.440  0.00  0.00    +0.074 C 
ENDBRANCH  21  22
ENDBRANCH  20  21
TORSDOF 5
ENDMDL
MODEL 4
REMARK VINA RESULT:      -6.0      3.450      4.624
REMARK  Name = ZINC95486079
REMARK  9 active torsions:
REMARK  status: ('A' for Active; 'I' for Inactive)
REMARK    1  A    between atoms: C1_1  and  C2_2
REMARK    2  A    between atoms: C2_2  and  C25_30
REMARK    3  A    between atoms: C3_3  and  C4_4
REMARK    4  A    between atoms: C4_4  and  C5_5
REMARK    5  A    between atoms: C18_22  and  O3_29
REMARK    6  A    between atoms: C19_23  and  C20_24
REMARK    7  A    between atoms: C20_24  and  C21_25
REMARK    8  A    between atoms: C22_26  and  C23_27
REMARK    9  A    between atoms: C22_26  and  C24_28
REMARK                            x       y       z     vdW  Elec       q    Type
REMARK                         _______ _______ _______ _____ _____    ______ ____
ROOT
ATOM      6  C   UNL     1      44.821  20.933  19.391  0.00  0.00    -0.033 A 
ATOM      7  C   UNL     1      46.020  21.192  18.753  0.00  0.00    -0.015 A 
ATOM      8  C   UNL     1      46.828  20.139  18.351  0.00  0.00    +0.073 A 
ATOM      9  C   UNL     1      46.429  18.850  18.582  0.00  0.00    -0.163 A 
ATOM     10  C   UNL     1      45.207  18.571  19.212  0.00  0.00    +0.145 A 
ATOM     11  O   UNL     1      44.795  17.293  19.392  0.00  0.00    -0.324 OA
ATOM     12  C   UNL     1      45.719  16.207  19.539  0.00  0.00    +0.273 C 
ATOM     13  C   UNL     1      47.127  16.748  19.500  0.00  0.00    -0.017 C 
ATOM     14  C   UNL     1      48.267  15.828  19.269  0.00  0.00    -0.161 A 
ATOM     15  C   UNL     1      48.550  14.555  19.715  0.00  0.00    +0.089 A 
ATOM     16  C   UNL     1      49.746  13.985  19.300  0.00  0.00    -0.033 A 
ATOM     17  C   UNL     1      50.621  14.667  18.472  0.00  0.00    +0.142 A 
ATOM     20  C   UNL     1      50.341  15.954  18.007  0.00  0.00    -0.109 A 
ATOM     26  C   UNL     1      49.144  16.532  18.413  0.00  0.00    +0.118 A 
ATOM     27  O   UNL     1      48.639  17.758  18.094  0.00  0.00    -0.272 OA
ATOM     28  C   UNL     1      47.227  17.643  18.216  0.00  0.00    +0.222 C 
ATOM     29  C   UNL     1      44.417  19.634  19.627  0.00  0.00    -0.009 A 
ENDROOT
BRANCH  17  18
ATOM     18  O   UNL     1      51.783  14.068  18.099  0.00  0.00    -0.491 OA
ATOM     19  H   UNL     1      51.707  13.114  17.962  0.00  0.00    +0.393 HD
ENDBRANCH  17  18
BRANCH   6   5
ATOM      5  C   UNL     1      43.950  22.078  19.839  0.00  0.00    +0.110 C 
BRANCH   5   4
ATOM      1  C   UNL     1      44.512  24.657  18.848  0.00  0.00    +0.074 C 
ATOM      2  C   UNL     1      45.077  24.218  20.175  0.00  0.00    -0.126 C 
ATOM      3  C   UNL     1      45.995  25.134  20.943  0.00  0.00    +0.074 C 
ATOM      4  C   UNL     1      44.769  23.042  20.659  0.00  0.00    -0.054 C 
ENDBRANCH   5   4
ENDBRANCH   6   5
BRANCH  20  21
ATOM     21  C   UNL     1      51.300  16.690  17.106  0.00  0.00    +0.125 C 
BRANCH  21  22
ATOM     22  C   UNL     1      51.976  17.789  17.884  0.00  0.00    -0.051 C 
ATOM     23  C   UNL     1      52.083  18.988  17.367  0.00  0.00    -0.125 C 
ATOM     24  C   UNL     1      52.629  20.121  18.196  0.00  0.00    +0.073 C 
ATOM     25  C   UNL     1      51.658  19.233  15.941  0.00  0.00    +0.074 C 
ENDBRANCH  21  22
ENDBRANCH  20  21
TORSDOF 5
ENDMDL
MODEL 5
REMARK VINA RESULT:      -5.8      3.512      4.557
REMARK  Name = ZINC95486079
REMARK  9 active torsions:
REMARK  status: ('A' for Active; 'I' for Inactive)
REMARK    1  A    between atoms: C1_1  and  C2_2
REMARK    2  A    between atoms: C2_2  and  C25_30
REMARK    3  A    between atoms: C3_3  and  C4_4
REMARK    4  A    between atoms: C4_4  and  C5_5
REMARK    5  A    between atoms: C18_22  and  O3_29
REMARK    6  A    between atoms: C19_23  and  C20_24
REMARK    7  A    between atoms: C20_24  and  C21_25
REMARK    8  A    between atoms: C22_26  and  C23_27
REMARK    9  A    between atoms: C22_26  and  C24_28
REMARK                            x       y       z     vdW  Elec       q    Type
REMARK                         _______ _______ _______ _____ _____    ______ ____
ROOT
ATOM      6  C   UNL     1      44.559  19.347  19.690  0.00  0.00    -0.033 A 
ATOM      7  C   UNL     1      45.663  19.723  18.948  0.00  0.00    -0.015 A 
ATOM      8  C   UNL     1      46.566  18.762  18.523  0.00  0.00    +0.073 A 
ATOM      9  C   UNL     1      46.356  17.446  18.835  0.00  0.00    -0.163 A 
ATOM     10  C   UNL     1      45.231  17.046  19.572  0.00  0.00    +0.145 A 
ATOM     11  O   UNL     1      45.001  15.737  19.834  0.00  0.00    -0.324 OA
ATOM     12  C   UNL     1      46.066  14.785  19.948  0.00  0.00    +0.273 C 
ATOM     13  C   UNL     1      47.386  15.495  19.775  0.00  0.00    -0.017 C 
ATOM     14  C   UNL     1      48.614  14.715  19.489  0.00  0.00    -0.161 A 
ATOM     15  C   UNL     1      49.091  13.511  19.959  0.00  0.00    +0.089 A 
ATOM     16  C   UNL     1      50.316  13.076  19.471  0.00  0.00    -0.033 A 
ATOM     17  C   UNL     1      51.032  13.821  18.550  0.00  0.00    +0.142 A 
ATOM     20  C   UNL     1      50.554  15.038  18.060  0.00  0.00    -0.109 A 
ATOM     26  C   UNL     1      49.327  15.481  18.537  0.00  0.00    +0.118 A 
ATOM     27  O   UNL     1      48.645  16.617  18.214  0.00  0.00    -0.272 OA
ATOM     28  C   UNL     1      47.273  16.332  18.453  0.00  0.00    +0.222 C 
ATOM     29  C   UNL     1      44.344  18.021  20.008  0.00  0.00    -0.009 A 
ENDROOT
BRANCH  17  18
ATOM     18  O   UNL     1      52.230  13.355  18.108  0.00  0.00    -0.491 OA
ATOM     19  H   UNL     1      52.968  13.959  18.263  0.00  0.00    +0.393 HD
ENDBRANCH  17  18
BRANCH   6   5
ATOM      5  C   UNL     1      43.583  20.395  20.162  0.00  0.00    +0.110 C 
BRANCH   5   4
ATOM      1  C   UNL     1      40.965  19.402  20.491  0.00  0.00    +0.074 C 
ATOM      2  C   UNL     1      41.346  20.122  19.223  0.00  0.00    -0.126 C 
ATOM      3  C   UNL     1      40.346  20.256  18.103  0.00  0.00    +0.074 C 
ATOM      4  C   UNL     1      42.545  20.632  19.095  0.00  0.00    -0.054 C 
ENDBRANCH   5   4
ENDBRANCH   6   5
BRANCH  20  21
ATOM     21  C   UNL     1      51.340  15.844  17.056  0.00  0.00    +0.125 C 
BRANCH  21  22
ATOM     22  C   UNL     1      52.109  16.924  17.772  0.00  0.00    -0.051 C 
ATOM     23  C   UNL     1      51.929  18.181  17.449  0.00  0.00    -0.125 C 
ATOM     24  C   UNL     1      52.588  19.269  18.256  0.00  0.00    +0.073 C 
ATOM     25  C   UNL     1      51.062  18.538  16.268  0.00  0.00    +0.074 C 
ENDBRANCH  21  22
ENDBRANCH  20  21
TORSDOF 5
ENDMDL
MODEL 6
REMARK VINA RESULT:      -5.8      4.960      8.331
REMARK  Name = ZINC95486079
REMARK  9 active torsions:
REMARK  status: ('A' for Active; 'I' for Inactive)
REMARK    1  A    between atoms: C1_1  and  C2_2
REMARK    2  A    between atoms: C2_2  and  C25_30
REMARK    3  A    between atoms: C3_3  and  C4_4
REMARK    4  A    between atoms: C4_4  and  C5_5
REMARK    5  A    between atoms: C18_22  and  O3_29
REMARK    6  A    between atoms: C19_23  and  C20_24
REMARK    7  A    between atoms: C20_24  and  C21_25
REMARK    8  A    between atoms: C22_26  and  C23_27
REMARK    9  A    between atoms: C22_26  and  C24_28
REMARK                            x       y       z     vdW  Elec       q    Type
REMARK                         _______ _______ _______ _____ _____    ______ ____
ROOT
ATOM      6  C   UNL     1      49.612  19.543  18.654  0.00  0.00    -0.033 A 
ATOM      7  C   UNL     1      50.202  18.790  17.656  0.00  0.00    -0.015 A 
ATOM      8  C   UNL     1      49.520  17.713  17.112  0.00  0.00    +0.073 A 
ATOM      9  C   UNL     1      48.264  17.406  17.562  0.00  0.00    -0.163 A 
ATOM     10  C   UNL     1      47.645  18.171  18.562  0.00  0.00    +0.145 A 
ATOM     11  O   UNL     1      46.383  17.893  18.968  0.00  0.00    -0.324 OA
ATOM     12  C   UNL     1      45.838  16.568  18.911  0.00  0.00    +0.273 C 
ATOM     13  C   UNL     1      46.892  15.622  18.391  0.00  0.00    -0.017 C 
ATOM     14  C   UNL     1      46.503  14.280  17.895  0.00  0.00    -0.161 A 
ATOM     15  C   UNL     1      45.590  13.346  18.335  0.00  0.00    +0.089 A 
ATOM     16  C   UNL     1      45.494  12.161  17.618  0.00  0.00    -0.033 A 
ATOM     17  C   UNL     1      46.282  11.925  16.505  0.00  0.00    +0.142 A 
ATOM     20  C   UNL     1      47.204  12.868  16.045  0.00  0.00    -0.109 A 
ATOM     26  C   UNL     1      47.305  14.059  16.752  0.00  0.00    +0.118 A 
ATOM     27  O   UNL     1      48.111  15.131  16.505  0.00  0.00    -0.272 OA
ATOM     28  C   UNL     1      47.450  16.256  17.069  0.00  0.00    +0.222 C 
ATOM     29  C   UNL     1      48.346  19.235  19.112  0.00  0.00    -0.009 A 
ENDROOT
BRANCH  17  18
ATOM     18  O   UNL     1      46.155  10.746  15.841  0.00  0.00    -0.491 OA
ATOM     19  H   UNL     1      45.252  10.552  15.554  0.00  0.00    +0.393 HD
ENDBRANCH  17  18
BRANCH   6   5
ATOM      5  C   UNL     1      50.359  20.707  19.253  0.00  0.00    +0.110 C 
BRANCH   5   4
ATOM      1  C   UNL     1      52.708  21.901  20.255  0.00  0.00    +0.074 C 
ATOM      2  C   UNL     1      52.004  20.835  21.054  0.00  0.00    -0.126 C 
ATOM      3  C   UNL     1      52.589  20.360  22.359  0.00  0.00    +0.074 C 
ATOM      4  C   UNL     1      50.882  20.322  20.613  0.00  0.00    -0.054 C 
ENDBRANCH   5   4
ENDBRANCH   6   5
BRANCH  20  21
ATOM     21  C   UNL     1      48.059  12.603  14.831  0.00  0.00    +0.125 C 
BRANCH  21  22
ATOM     22  C   UNL     1      49.489  12.400  15.261  0.00  0.00    -0.051 C 
ATOM     23  C   UNL     1      50.464  12.603  14.410  0.00  0.00    -0.125 C 
ATOM     24  C   UNL     1      51.896  12.539  14.875  0.00  0.00    +0.073 C 
ATOM     25  C   UNL     1      50.153  12.902  12.966  0.00  0.00    +0.074 C 
ENDBRANCH  21  22
ENDBRANCH  20  21
TORSDOF 5
ENDMDL
MODEL 7
REMARK VINA RESULT:      -5.7      2.870      3.848
REMARK  Name = ZINC95486079
REMARK  9 active torsions:
REMARK  status: ('A' for Active; 'I' for Inactive)
REMARK    1  A    between atoms: C1_1  and  C2_2
REMARK    2  A    between atoms: C2_2  and  C25_30
REMARK    3  A    between atoms: C3_3  and  C4_4
REMARK    4  A    between atoms: C4_4  and  C5_5
REMARK    5  A    between atoms: C18_22  and  O3_29
REMARK    6  A    between atoms: C19_23  and  C20_24
REMARK    7  A    between atoms: C20_24  and  C21_25
REMARK    8  A    between atoms: C22_26  and  C23_27
REMARK    9  A    between atoms: C22_26  and  C24_28
REMARK                            x       y       z     vdW  Elec       q    Type
REMARK                         _______ _______ _______ _____ _____    ______ ____
ROOT
ATOM      6  C   UNL     1      43.815  19.431  20.498  0.00  0.00    -0.033 A 
ATOM      7  C   UNL     1      44.142  18.110  20.254  0.00  0.00    -0.015 A 
ATOM      8  C   UNL     1      45.468  17.752  20.066  0.00  0.00    +0.073 A 
ATOM      9  C   UNL     1      46.446  18.708  20.131  0.00  0.00    -0.163 A 
ATOM     10  C   UNL     1      46.132  20.050  20.395  0.00  0.00    +0.145 A 
ATOM     11  O   UNL     1      47.108  20.982  20.508  0.00  0.00    -0.324 OA
ATOM     12  C   UNL     1      48.358  20.864  19.817  0.00  0.00    +0.273 C 
ATOM     13  C   UNL     1      48.342  19.613  18.974  0.00  0.00    -0.017 C 
ATOM     14  C   UNL     1      49.611  19.059  18.446  0.00  0.00    -0.161 A 
ATOM     15  C   UNL     1      50.742  19.644  17.919  0.00  0.00    +0.089 A 
ATOM     16  C   UNL     1      51.762  18.800  17.501  0.00  0.00    -0.033 A 
ATOM     17  C   UNL     1      51.649  17.424  17.607  0.00  0.00    +0.142 A 
ATOM     20  C   UNL     1      50.511  16.821  18.148  0.00  0.00    -0.109 A 
ATOM     26  C   UNL     1      49.487  17.657  18.574  0.00  0.00    +0.118 A 
ATOM     27  O   UNL     1      48.292  17.321  19.139  0.00  0.00    -0.272 OA
ATOM     28  C   UNL     1      47.900  18.442  19.920  0.00  0.00    +0.222 C 
ATOM     29  C   UNL     1      44.799  20.397  20.562  0.00  0.00    -0.009 A 
ENDROOT
BRANCH  17  18
ATOM     18  O   UNL     1      52.672  16.640  17.177  0.00  0.00    -0.491 OA
ATOM     19  H   UNL     1      52.404  15.747  16.925  0.00  0.00    +0.393 HD
ENDBRANCH  17  18
BRANCH   6   5
ATOM      5  C   UNL     1      42.372  19.820  20.690  0.00  0.00    +0.110 C 
BRANCH   5   4
ATOM      1  C   UNL     1      41.308  21.552  18.736  0.00  0.00    +0.074 C 
ATOM      2  C   UNL     1      41.006  20.076  18.682  0.00  0.00    -0.126 C 
ATOM      3  C   UNL     1      40.084  19.533  17.621  0.00  0.00    +0.074 C 
ATOM      4  C   UNL     1      41.547  19.266  19.557  0.00  0.00    -0.054 C 
ENDBRANCH   5   4
ENDBRANCH   6   5
BRANCH  20  21
ATOM     21  C   UNL     1      50.395  15.321  18.260  0.00  0.00    +0.125 C 
BRANCH  21  22
ATOM     22  C   UNL     1      49.676  14.782  17.050  0.00  0.00    -0.051 C 
ATOM     23  C   UNL     1      48.554  14.121  17.196  0.00  0.00    -0.125 C 
ATOM     24  C   UNL     1      47.761  13.705  15.984  0.00  0.00    +0.073 C 
ATOM     25  C   UNL     1      48.057  13.777  18.577  0.00  0.00    +0.074 C 
ENDBRANCH  21  22
ENDBRANCH  20  21
TORSDOF 5
ENDMDL
MODEL 8
REMARK VINA RESULT:      -5.3      3.745      5.477
REMARK  Name = ZINC95486079
REMARK  9 active torsions:
REMARK  status: ('A' for Active; 'I' for Inactive)
REMARK    1  A    between atoms: C1_1  and  C2_2
REMARK    2  A    between atoms: C2_2  and  C25_30
REMARK    3  A    between atoms: C3_3  and  C4_4
REMARK    4  A    between atoms: C4_4  and  C5_5
REMARK    5  A    between atoms: C18_22  and  O3_29
REMARK    6  A    between atoms: C19_23  and  C20_24
REMARK    7  A    between atoms: C20_24  and  C21_25
REMARK    8  A    between atoms: C22_26  and  C23_27
REMARK    9  A    between atoms: C22_26  and  C24_28
REMARK                            x       y       z     vdW  Elec       q    Type
REMARK                         _______ _______ _______ _____ _____    ______ ____
ROOT
ATOM      6  C   UNL     1      46.070  21.086  21.176  0.00  0.00    -0.033 A 
ATOM      7  C   UNL     1      45.786  19.742  21.326  0.00  0.00    -0.015 A 
ATOM      8  C   UNL     1      46.721  18.793  20.943  0.00  0.00    +0.073 A 
ATOM      9  C   UNL     1      47.923  19.194  20.425  0.00  0.00    -0.163 A 
ATOM     10  C   UNL     1      48.234  20.555  20.283  0.00  0.00    +0.145 A 
ATOM     11  O   UNL     1      49.444  20.946  19.817  0.00  0.00    -0.324 OA
ATOM     12  C   UNL     1      50.211  20.137  18.916  0.00  0.00    +0.273 C 
ATOM     13  C   UNL     1      49.433  18.887  18.588  0.00  0.00    -0.017 C 
ATOM     14  C   UNL     1      50.122  17.724  17.979  0.00  0.00    -0.161 A 
ATOM     15  C   UNL     1      51.100  17.614  17.014  0.00  0.00    +0.089 A 
ATOM     16  C   UNL     1      51.513  16.334  16.668  0.00  0.00    -0.033 A 
ATOM     17  C   UNL     1      50.965  15.212  17.265  0.00  0.00    +0.142 A 
ATOM     20  C   UNL     1      49.979  15.313  18.250  0.00  0.00    -0.109 A 
ATOM     26  C   UNL     1      49.562  16.589  18.608  0.00  0.00    +0.118 A 
ATOM     27  O   UNL     1      48.633  16.953  19.537  0.00  0.00    -0.272 OA
ATOM     28  C   UNL     1      48.992  18.262  19.957  0.00  0.00    +0.222 C 
ATOM     29  C   UNL     1      47.281  21.494  20.652  0.00  0.00    -0.009 A 
ENDROOT
BRANCH  17  18
ATOM     18  O   UNL     1      51.398  13.981  16.887  0.00  0.00    -0.491 OA
ATOM     19  H   UNL     1      50.690  13.331  16.780  0.00  0.00    +0.393 HD
ENDBRANCH  17  18
BRANCH   6   5
ATOM      5  C   UNL     1      45.048  22.116  21.581  0.00  0.00    +0.110 C 
BRANCH   5   4
ATOM      1  C   UNL     1      43.167  22.619  19.541  0.00  0.00    +0.074 C 
ATOM      2  C   UNL     1      44.348  23.538  19.723  0.00  0.00    -0.126 C 
ATOM      3  C   UNL     1      44.559  24.690  18.775  0.00  0.00    +0.074 C 
ATOM      4  C   UNL     1      45.189  23.336  20.706  0.00  0.00    -0.054 C 
ENDBRANCH   5   4
ENDBRANCH   6   5
BRANCH  20  21
ATOM     21  C   UNL     1      49.386  14.086  18.897  0.00  0.00    +0.125 C 
BRANCH  21  22
ATOM     22  C   UNL     1      48.105  13.719  18.194  0.00  0.00    -0.051 C 
ATOM     23  C   UNL     1      47.024  13.469  18.890  0.00  0.00    -0.125 C 
ATOM     24  C   UNL     1      45.710  13.242  18.188  0.00  0.00    +0.073 C 
ATOM     25  C   UNL     1      47.094  13.411  20.395  0.00  0.00    +0.074 C 
ENDBRANCH  21  22
ENDBRANCH  20  21
TORSDOF 5
ENDMDL
MODEL 9
REMARK VINA RESULT:      -5.2      4.657      6.177
REMARK  Name = ZINC95486079
REMARK  9 active torsions:
REMARK  status: ('A' for Active; 'I' for Inactive)
REMARK    1  A    between atoms: C1_1  and  C2_2
REMARK    2  A    between atoms: C2_2  and  C25_30
REMARK    3  A    between atoms: C3_3  and  C4_4
REMARK    4  A    between atoms: C4_4  and  C5_5
REMARK    5  A    between atoms: C18_22  and  O3_29
REMARK    6  A    between atoms: C19_23  and  C20_24
REMARK    7  A    between atoms: C20_24  and  C21_25
REMARK    8  A    between atoms: C22_26  and  C23_27
REMARK    9  A    between atoms: C22_26  and  C24_28
REMARK                            x       y       z     vdW  Elec       q    Type
REMARK                         _______ _______ _______ _____ _____    ______ ____
ROOT
ATOM      6  C   UNL     1      44.748  19.766  19.428  0.00  0.00    -0.033 A 
ATOM      7  C   UNL     1      44.316  18.456  19.517  0.00  0.00    -0.015 A 
ATOM      8  C   UNL     1      45.236  17.422  19.448  0.00  0.00    +0.073 A 
ATOM      9  C   UNL     1      46.567  17.705  19.300  0.00  0.00    -0.163 A 
ATOM     10  C   UNL     1      47.023  19.029  19.225  0.00  0.00    +0.145 A 
ATOM     11  O   UNL     1      48.346  19.304  19.130  0.00  0.00    -0.324 OA
ATOM     12  C   UNL     1      49.270  18.398  18.513  0.00  0.00    +0.273 C 
ATOM     13  C   UNL     1      48.516  17.198  17.997  0.00  0.00    -0.017 C 
ATOM     14  C   UNL     1      49.249  15.959  17.644  0.00  0.00    -0.161 A 
ATOM     15  C   UNL     1      50.453  15.729  17.014  0.00  0.00    +0.089 A 
ATOM     16  C   UNL     1      50.836  14.407  16.833  0.00  0.00    -0.033 A 
ATOM     17  C   UNL     1      50.042  13.359  17.266  0.00  0.00    +0.142 A 
ATOM     20  C   UNL     1      48.824  13.581  17.914  0.00  0.00    -0.109 A 
ATOM     26  C   UNL     1      48.433  14.900  18.104  0.00  0.00    +0.118 A 
ATOM     27  O   UNL     1      47.308  15.377  18.710  0.00  0.00    -0.272 OA
ATOM     28  C   UNL     1      47.641  16.673  19.188  0.00  0.00    +0.222 C 
ATOM     29  C   UNL     1      46.089  20.055  19.276  0.00  0.00    -0.009 A 
ENDROOT
BRANCH  17  18
ATOM     18  O   UNL     1      50.458  12.082  17.060  0.00  0.00    -0.491 OA
ATOM     19  H   UNL     1      50.340  11.772  16.152  0.00  0.00    +0.393 HD
ENDBRANCH  17  18
BRANCH   6   5
ATOM      5  C   UNL     1      43.745  20.889  19.490  0.00  0.00    +0.110 C 
BRANCH   5   4
ATOM      1  C   UNL     1      41.769  22.729  18.678  0.00  0.00    +0.074 C 
ATOM      2  C   UNL     1      41.470  21.252  18.680  0.00  0.00    -0.126 C 
ATOM      3  C   UNL     1      40.094  20.761  18.309  0.00  0.00    +0.074 C 
ATOM      4  C   UNL     1      42.406  20.396  19.003  0.00  0.00    -0.054 C 
ENDBRANCH   5   4
ENDBRANCH   6   5
BRANCH  20  21
ATOM     21  C   UNL     1      47.964  12.434  18.383  0.00  0.00    +0.125 C 
BRANCH  21  22
ATOM     22  C   UNL     1      46.681  12.414  17.592  0.00  0.00    -0.051 C 
ATOM     23  C   UNL     1      46.391  11.381  16.840  0.00  0.00    -0.125 C 
ATOM     24  C   UNL     1      45.048  11.295  16.162  0.00  0.00    +0.073 C 
ATOM     25  C   UNL     1      47.401  10.277  16.655  0.00  0.00    +0.074 C 
ENDBRANCH  21  22
ENDBRANCH  20  21
TORSDOF 5
ENDMDL
