MODEL 1
REMARK VINA RESULT:      -5.7      0.000      0.000
REMARK  Name = ZINC13359285
REMARK  11 active torsions:
REMARK  status: ('A' for Active; 'I' for Inactive)
REMARK    1  A    between atoms: C1_1  and  C2_2
REMARK    2  A    between atoms: C4_4  and  O4_30
REMARK    3  A    between atoms: C7_7  and  C8_8
REMARK    4  A    between atoms: C9_9  and  O2_23
REMARK    5  A    between atoms: C13_13  and  O1_14
REMARK    6  A    between atoms: O1_14  and  C14_15
REMARK    7  A    between atoms: C15_16  and  C19_22
REMARK    8  A    between atoms: C16_18  and  C18_21
REMARK    9  A    between atoms: C23_27  and  O3_28
REMARK   10  A    between atoms: O3_28  and  C24_29
REMARK   11  A    between atoms: O4_30  and  C25_31
REMARK                            x       y       z     vdW  Elec       q    Type
REMARK                         _______ _______ _______ _____ _____    ______ ____
ROOT
ATOM     16  C   UNL     1      46.715  19.095  20.511  0.00  0.00    -0.084 A 
ATOM     17  C   UNL     1      46.606  18.210  21.588  0.00  0.00    +0.152 A 
ATOM     20  C   UNL     1      45.359  17.745  21.991  0.00  0.00    -0.011 A 
ATOM     21  C   UNL     1      44.223  18.162  21.337  0.00  0.00    -0.035 A 
ATOM     22  C   UNL     1      44.315  19.053  20.259  0.00  0.00    -0.143 A 
ATOM     23  C   UNL     1      43.076  19.474  19.584  0.00  0.00    +0.218 C 
ATOM     24  C   UNL     1      43.134  20.063  18.199  0.00  0.00    +0.137 C 
ATOM     25  N   UNL     1      41.940  19.337  20.185  0.00  0.00    -0.512 NA
ATOM     26  C   UNL     1      41.834  18.788  21.532  0.00  0.00    +0.149 C 
ATOM     27  C   UNL     1      40.428  18.219  21.733  0.00  0.00    +0.055 C 
ATOM     28  C   UNL     1      42.860  17.678  21.759  0.00  0.00    +0.074 C 
ATOM     29  C   UNL     1      45.564  19.522  19.842  0.00  0.00    +0.165 A 
ENDROOT
BRANCH  16  15
ATOM      1  C   UNL     1      47.900  21.343  21.854  0.00  0.00    +0.095 C 
ATOM      2  C   UNL     1      48.628  20.666  20.721  0.00  0.00    -0.002 A 
ATOM      3  C   UNL     1      49.878  21.130  20.332  0.00  0.00    -0.104 A 
ATOM      4  C   UNL     1      50.563  20.534  19.296  0.00  0.00    +0.177 A 
ATOM      7  C   UNL     1      49.997  19.435  18.620  0.00  0.00    -0.100 A 
ATOM      8  C   UNL     1      48.727  18.952  19.015  0.00  0.00    +0.046 A 
ATOM      9  C   UNL     1      48.164  17.858  18.343  0.00  0.00    -0.039 A 
ATOM     10  C   UNL     1      48.840  17.267  17.317  0.00  0.00    +0.070 A 
ATOM     11  C   UNL     1      50.090  17.734  16.922  0.00  0.00    -0.113 A 
ATOM     12  C   UNL     1      50.675  18.806  17.557  0.00  0.00    +0.171 A 
ATOM     15  C   UNL     1      48.046  19.584  20.083  0.00  0.00    -0.083 A 
BRANCH   4   5
ATOM      5  O   UNL     1      51.782  21.006  18.925  0.00  0.00    -0.290 OA
ATOM      6  C   UNL     1      52.627  21.506  19.963  0.00  0.00    +0.239 C 
ENDBRANCH   4   5
BRANCH  12  13
ATOM     13  O   UNL     1      51.895  19.253  17.163  0.00  0.00    -0.291 OA
ATOM     14  C   UNL     1      52.061  19.549  15.776  0.00  0.00    +0.239 C 
ENDBRANCH  12  13
ENDBRANCH  16  15
BRANCH  17  18
ATOM     18  O   UNL     1      47.722  17.798  22.242  0.00  0.00    -0.485 OA
ATOM     19  H   UNL     1      48.543  18.173  21.893  0.00  0.00    +0.393 HD
ENDBRANCH  17  18
BRANCH  29  30
ATOM     30  O   UNL     1      45.658  20.385  18.799  0.00  0.00    -0.322 OA
ATOM     31  C   UNL     1      45.611  21.779  19.104  0.00  0.00    +0.231 C 
ENDBRANCH  29  30
TORSDOF 5
ENDMDL
MODEL 2
REMARK VINA RESULT:      -5.4      2.267      3.195
REMARK  Name = ZINC13359285
REMARK  11 active torsions:
REMARK  status: ('A' for Active; 'I' for Inactive)
REMARK    1  A    between atoms: C1_1  and  C2_2
REMARK    2  A    between atoms: C4_4  and  O4_30
REMARK    3  A    between atoms: C7_7  and  C8_8
REMARK    4  A    between atoms: C9_9  and  O2_23
REMARK    5  A    between atoms: C13_13  and  O1_14
REMARK    6  A    between atoms: O1_14  and  C14_15
REMARK    7  A    between atoms: C15_16  and  C19_22
REMARK    8  A    between atoms: C16_18  and  C18_21
REMARK    9  A    between atoms: C23_27  and  O3_28
REMARK   10  A    between atoms: O3_28  and  C24_29
REMARK   11  A    between atoms: O4_30  and  C25_31
REMARK                            x       y       z     vdW  Elec       q    Type
REMARK                         _______ _______ _______ _____ _____    ______ ____
ROOT
ATOM     16  C   UNL     1      46.130  19.453  19.954  0.00  0.00    -0.084 A 
ATOM     17  C   UNL     1      46.130  20.640  19.215  0.00  0.00    +0.152 A 
ATOM     20  C   UNL     1      44.936  21.303  18.951  0.00  0.00    -0.011 A 
ATOM     21  C   UNL     1      43.746  20.788  19.409  0.00  0.00    -0.035 A 
ATOM     22  C   UNL     1      43.728  19.597  20.147  0.00  0.00    -0.143 A 
ATOM     23  C   UNL     1      42.434  19.079  20.620  0.00  0.00    +0.218 C 
ATOM     24  C   UNL     1      42.386  18.078  21.744  0.00  0.00    +0.137 C 
ATOM     25  N   UNL     1      41.339  19.487  20.066  0.00  0.00    -0.512 NA
ATOM     26  C   UNL     1      41.333  20.442  18.964  0.00  0.00    +0.149 C 
ATOM     27  C   UNL     1      39.979  21.152  18.921  0.00  0.00    +0.055 C 
ATOM     28  C   UNL     1      42.439  21.484  19.131  0.00  0.00    +0.074 C 
ATOM     29  C   UNL     1      44.922  18.925  20.422  0.00  0.00    +0.165 A 
ENDROOT
BRANCH  16  15
ATOM      1  C   UNL     1      47.443  19.860  22.477  0.00  0.00    +0.095 C 
ATOM      2  C   UNL     1      48.047  18.941  21.446  0.00  0.00    -0.002 A 
ATOM      3  C   UNL     1      49.240  18.285  21.725  0.00  0.00    -0.104 A 
ATOM      4  C   UNL     1      49.818  17.444  20.800  0.00  0.00    +0.177 A 
ATOM      7  C   UNL     1      49.193  17.236  19.554  0.00  0.00    -0.100 A 
ATOM      8  C   UNL     1      47.975  17.894  19.265  0.00  0.00    +0.046 A 
ATOM      9  C   UNL     1      47.352  17.687  18.026  0.00  0.00    -0.039 A 
ATOM     10  C   UNL     1      47.923  16.855  17.109  0.00  0.00    +0.070 A 
ATOM     11  C   UNL     1      49.120  16.201  17.383  0.00  0.00    -0.113 A 
ATOM     12  C   UNL     1      49.760  16.380  18.588  0.00  0.00    +0.171 A 
ATOM     15  C   UNL     1      47.404  18.753  20.235  0.00  0.00    -0.083 A 
BRANCH   4   5
ATOM      5  O   UNL     1      50.988  16.817  21.087  0.00  0.00    -0.290 OA
ATOM      6  C   UNL     1      52.078  17.640  21.508  0.00  0.00    +0.239 C 
ENDBRANCH   4   5
BRANCH  12  13
ATOM     13  O   UNL     1      50.929  15.738  18.845  0.00  0.00    -0.291 OA
ATOM     14  C   UNL     1      51.985  15.909  17.899  0.00  0.00    +0.239 C 
ENDBRANCH  12  13
ENDBRANCH  16  15
BRANCH  17  18
ATOM     18  O   UNL     1      47.300  21.151  18.755  0.00  0.00    -0.485 OA
ATOM     19  H   UNL     1      48.003  20.495  18.653  0.00  0.00    +0.393 HD
ENDBRANCH  17  18
BRANCH  29  30
ATOM     30  O   UNL     1      44.910  17.771  21.136  0.00  0.00    -0.322 OA
ATOM     31  C   UNL     1      44.897  16.550  20.395  0.00  0.00    +0.231 C 
ENDBRANCH  29  30
TORSDOF 5
ENDMDL
MODEL 3
REMARK VINA RESULT:      -5.2      0.840      2.746
REMARK  Name = ZINC13359285
REMARK  11 active torsions:
REMARK  status: ('A' for Active; 'I' for Inactive)
REMARK    1  A    between atoms: C1_1  and  C2_2
REMARK    2  A    between atoms: C4_4  and  O4_30
REMARK    3  A    between atoms: C7_7  and  C8_8
REMARK    4  A    between atoms: C9_9  and  O2_23
REMARK    5  A    between atoms: C13_13  and  O1_14
REMARK    6  A    between atoms: O1_14  and  C14_15
REMARK    7  A    between atoms: C15_16  and  C19_22
REMARK    8  A    between atoms: C16_18  and  C18_21
REMARK    9  A    between atoms: C23_27  and  O3_28
REMARK   10  A    between atoms: O3_28  and  C24_29
REMARK   11  A    between atoms: O4_30  and  C25_31
REMARK                            x       y       z     vdW  Elec       q    Type
REMARK                         _______ _______ _______ _____ _____    ______ ____
ROOT
ATOM     16  C   UNL     1      46.433  18.175  19.909  0.00  0.00    -0.084 A 
ATOM     17  C   UNL     1      46.251  17.295  20.981  0.00  0.00    +0.152 A 
ATOM     20  C   UNL     1      44.995  17.144  21.559  0.00  0.00    -0.011 A 
ATOM     21  C   UNL     1      43.926  17.868  21.085  0.00  0.00    -0.035 A 
ATOM     22  C   UNL     1      44.093  18.758  20.015  0.00  0.00    -0.143 A 
ATOM     23  C   UNL     1      42.924  19.513  19.536  0.00  0.00    +0.218 C 
ATOM     24  C   UNL     1      42.937  20.134  18.164  0.00  0.00    +0.137 C 
ATOM     25  N   UNL     1      41.887  19.641  20.297  0.00  0.00    -0.512 NA
ATOM     26  C   UNL     1      41.833  19.072  21.639  0.00  0.00    +0.149 C 
ATOM     27  C   UNL     1      40.370  18.870  22.039  0.00  0.00    +0.055 C 
ATOM     28  C   UNL     1      42.558  17.728  21.699  0.00  0.00    +0.074 C 
ATOM     29  C   UNL     1      45.350  18.913  19.423  0.00  0.00    +0.165 A 
ENDROOT
BRANCH  16  15
ATOM      1  C   UNL     1      47.093  16.666  17.553  0.00  0.00    +0.095 C 
ATOM      2  C   UNL     1      48.103  17.608  18.159  0.00  0.00    -0.002 A 
ATOM      3  C   UNL     1      49.352  17.748  17.569  0.00  0.00    -0.104 A 
ATOM      4  C   UNL     1      50.297  18.596  18.105  0.00  0.00    +0.177 A 
ATOM      7  C   UNL     1      49.996  19.339  19.263  0.00  0.00    -0.100 A 
ATOM      8  C   UNL     1      48.722  19.208  19.866  0.00  0.00    +0.046 A 
ATOM      9  C   UNL     1      48.422  19.948  21.018  0.00  0.00    -0.039 A 
ATOM     10  C   UNL     1      49.355  20.787  21.550  0.00  0.00    +0.070 A 
ATOM     11  C   UNL     1      50.610  20.925  20.965  0.00  0.00    -0.113 A 
ATOM     12  C   UNL     1      50.941  20.215  19.833  0.00  0.00    +0.171 A 
ATOM     15  C   UNL     1      47.771  18.328  19.294  0.00  0.00    -0.083 A 
BRANCH   4   5
ATOM      5  O   UNL     1      51.516  18.714  17.519  0.00  0.00    -0.290 OA
ATOM      6  C   UNL     1      51.541  18.857  16.097  0.00  0.00    +0.239 C 
ENDBRANCH   4   5
BRANCH  12  13
ATOM     13  O   UNL     1      52.169  20.357  19.271  0.00  0.00    -0.291 OA
ATOM     14  C   UNL     1      52.934  21.498  19.663  0.00  0.00    +0.239 C 
ENDBRANCH  12  13
ENDBRANCH  16  15
BRANCH  17  18
ATOM     18  O   UNL     1      47.302  16.581  21.457  0.00  0.00    -0.485 OA
ATOM     19  H   UNL     1      47.050  15.772  21.924  0.00  0.00    +0.393 HD
ENDBRANCH  17  18
BRANCH  29  30
ATOM     30  O   UNL     1      45.517  19.773  18.386  0.00  0.00    -0.322 OA
ATOM     31  C   UNL     1      45.946  21.097  18.705  0.00  0.00    +0.231 C 
ENDBRANCH  29  30
TORSDOF 5
ENDMDL
MODEL 4
REMARK VINA RESULT:      -5.1      4.131      7.558
REMARK  Name = ZINC13359285
REMARK  11 active torsions:
REMARK  status: ('A' for Active; 'I' for Inactive)
REMARK    1  A    between atoms: C1_1  and  C2_2
REMARK    2  A    between atoms: C4_4  and  O4_30
REMARK    3  A    between atoms: C7_7  and  C8_8
REMARK    4  A    between atoms: C9_9  and  O2_23
REMARK    5  A    between atoms: C13_13  and  O1_14
REMARK    6  A    between atoms: O1_14  and  C14_15
REMARK    7  A    between atoms: C15_16  and  C19_22
REMARK    8  A    between atoms: C16_18  and  C18_21
REMARK    9  A    between atoms: C23_27  and  O3_28
REMARK   10  A    between atoms: O3_28  and  C24_29
REMARK   11  A    between atoms: O4_30  and  C25_31
REMARK                            x       y       z     vdW  Elec       q    Type
REMARK                         _______ _______ _______ _____ _____    ______ ____
ROOT
ATOM     16  C   UNL     1      49.266  17.197  18.627  0.00  0.00    -0.084 A 
ATOM     17  C   UNL     1      48.897  17.605  19.913  0.00  0.00    +0.152 A 
ATOM     20  C   UNL     1      49.442  18.758  20.466  0.00  0.00    -0.011 A 
ATOM     21  C   UNL     1      50.355  19.501  19.753  0.00  0.00    -0.035 A 
ATOM     22  C   UNL     1      50.738  19.103  18.465  0.00  0.00    -0.143 A 
ATOM     23  C   UNL     1      51.716  19.925  17.735  0.00  0.00    +0.218 C 
ATOM     24  C   UNL     1      51.839  19.802  16.238  0.00  0.00    +0.137 C 
ATOM     25  N   UNL     1      52.470  20.753  18.382  0.00  0.00    -0.512 NA
ATOM     26  C   UNL     1      52.400  20.897  19.832  0.00  0.00    +0.149 C 
ATOM     27  C   UNL     1      52.930  22.276  20.225  0.00  0.00    +0.055 C 
ATOM     28  C   UNL     1      50.964  20.751  20.333  0.00  0.00    +0.074 C 
ATOM     29  C   UNL     1      50.193  17.948  17.898  0.00  0.00    +0.165 A 
ENDROOT
BRANCH  16  15
ATOM      1  C   UNL     1      46.903  17.390  17.002  0.00  0.00    +0.095 C 
ATOM      2  C   UNL     1      47.541  16.049  17.257  0.00  0.00    -0.002 A 
ATOM      3  C   UNL     1      46.986  14.906  16.696  0.00  0.00    -0.104 A 
ATOM      4  C   UNL     1      47.545  13.666  16.917  0.00  0.00    +0.177 A 
ATOM      7  C   UNL     1      48.699  13.549  17.716  0.00  0.00    -0.100 A 
ATOM      8  C   UNL     1      49.276  14.709  18.284  0.00  0.00    +0.046 A 
ATOM      9  C   UNL     1      50.425  14.593  19.079  0.00  0.00    -0.039 A 
ATOM     10  C   UNL     1      50.979  13.367  19.299  0.00  0.00    +0.070 A 
ATOM     11  C   UNL     1      50.421  12.219  18.744  0.00  0.00    -0.113 A 
ATOM     12  C   UNL     1      49.293  12.294  17.958  0.00  0.00    +0.171 A 
ATOM     15  C   UNL     1      48.680  15.970  18.041  0.00  0.00    -0.083 A 
BRANCH   4   5
ATOM      5  O   UNL     1      46.983  12.558  16.366  0.00  0.00    -0.290 OA
ATOM      6  C   UNL     1      45.681  12.193  16.829  0.00  0.00    +0.239 C 
ENDBRANCH   4   5
BRANCH  12  13
ATOM     13  O   UNL     1      48.757  11.168  17.422  0.00  0.00    -0.291 OA
ATOM     14  C   UNL     1      49.650  10.282  16.745  0.00  0.00    +0.239 C 
ENDBRANCH  12  13
ENDBRANCH  16  15
BRANCH  17  18
ATOM     18  O   UNL     1      48.001  16.875  20.624  0.00  0.00    -0.485 OA
ATOM     19  H   UNL     1      47.891  17.169  21.539  0.00  0.00    +0.393 HD
ENDBRANCH  17  18
BRANCH  29  30
ATOM     30  O   UNL     1      50.561  17.558  16.651  0.00  0.00    -0.322 OA
ATOM     31  C   UNL     1      51.675  16.671  16.551  0.00  0.00    +0.231 C 
ENDBRANCH  29  30
TORSDOF 5
ENDMDL
MODEL 5
REMARK VINA RESULT:      -5.1      3.589      5.891
REMARK  Name = ZINC13359285
REMARK  11 active torsions:
REMARK  status: ('A' for Active; 'I' for Inactive)
REMARK    1  A    between atoms: C1_1  and  C2_2
REMARK    2  A    between atoms: C4_4  and  O4_30
REMARK    3  A    between atoms: C7_7  and  C8_8
REMARK    4  A    between atoms: C9_9  and  O2_23
REMARK    5  A    between atoms: C13_13  and  O1_14
REMARK    6  A    between atoms: O1_14  and  C14_15
REMARK    7  A    between atoms: C15_16  and  C19_22
REMARK    8  A    between atoms: C16_18  and  C18_21
REMARK    9  A    between atoms: C23_27  and  O3_28
REMARK   10  A    between atoms: O3_28  and  C24_29
REMARK   11  A    between atoms: O4_30  and  C25_31
REMARK                            x       y       z     vdW  Elec       q    Type
REMARK                         _______ _______ _______ _____ _____    ______ ____
ROOT
ATOM     16  C   UNL     1      47.883  16.349  18.193  0.00  0.00    -0.084 A 
ATOM     17  C   UNL     1      47.047  16.376  17.072  0.00  0.00    +0.152 A 
ATOM     20  C   UNL     1      46.625  15.190  16.482  0.00  0.00    -0.011 A 
ATOM     21  C   UNL     1      47.037  13.981  16.993  0.00  0.00    -0.035 A 
ATOM     22  C   UNL     1      47.879  13.936  18.112  0.00  0.00    -0.143 A 
ATOM     23  C   UNL     1      48.297  12.623  18.629  0.00  0.00    +0.218 C 
ATOM     24  C   UNL     1      48.825  12.497  20.034  0.00  0.00    +0.137 C 
ATOM     25  N   UNL     1      48.208  11.578  17.873  0.00  0.00    -0.512 NA
ATOM     26  C   UNL     1      47.719  11.651  16.500  0.00  0.00    +0.149 C 
ATOM     27  C   UNL     1      47.187  10.278  16.084  0.00  0.00    +0.055 C 
ATOM     28  C   UNL     1      46.599  12.682  16.367  0.00  0.00    +0.074 C 
ATOM     29  C   UNL     1      48.305  15.123  18.716  0.00  0.00    +0.165 A 
ENDROOT
BRANCH  16  15
ATOM      1  C   UNL     1      46.474  17.366  20.481  0.00  0.00    +0.095 C 
ATOM      2  C   UNL     1      47.656  18.116  19.923  0.00  0.00    -0.002 A 
ATOM      3  C   UNL     1      48.066  19.300  20.524  0.00  0.00    -0.104 A 
ATOM      4  C   UNL     1      49.139  20.009  20.032  0.00  0.00    +0.177 A 
ATOM      7  C   UNL     1      49.839  19.531  18.906  0.00  0.00    -0.100 A 
ATOM      8  C   UNL     1      49.433  18.323  18.293  0.00  0.00    +0.046 A 
ATOM      9  C   UNL     1      50.130  17.846  17.173  0.00  0.00    -0.039 A 
ATOM     10  C   UNL     1      51.192  18.547  16.684  0.00  0.00    +0.070 A 
ATOM     11  C   UNL     1      51.601  19.736  17.280  0.00  0.00    -0.113 A 
ATOM     12  C   UNL     1      50.941  20.235  18.381  0.00  0.00    +0.171 A 
ATOM     15  C   UNL     1      48.326  17.615  18.820  0.00  0.00    -0.083 A 
BRANCH   4   5
ATOM      5  O   UNL     1      49.520  21.168  20.628  0.00  0.00    -0.290 OA
ATOM      6  C   UNL     1      49.724  21.134  22.042  0.00  0.00    +0.239 C 
ENDBRANCH   4   5
BRANCH  12  13
ATOM     13  O   UNL     1      51.348  21.396  18.955  0.00  0.00    -0.291 OA
ATOM     14  C   UNL     1      52.640  21.401  19.564  0.00  0.00    +0.239 C 
ENDBRANCH  12  13
ENDBRANCH  16  15
BRANCH  17  18
ATOM     18  O   UNL     1      46.640  17.566  16.560  0.00  0.00    -0.485 OA
ATOM     19  H   UNL     1      45.839  17.509  16.021  0.00  0.00    +0.393 HD
ENDBRANCH  17  18
BRANCH  29  30
ATOM     30  O   UNL     1      49.120  15.085  19.800  0.00  0.00    -0.322 OA
ATOM     31  C   UNL     1      50.524  15.187  19.559  0.00  0.00    +0.231 C 
ENDBRANCH  29  30
TORSDOF 5
ENDMDL
MODEL 6
REMARK VINA RESULT:      -5.1      4.535      7.973
REMARK  Name = ZINC13359285
REMARK  11 active torsions:
REMARK  status: ('A' for Active; 'I' for Inactive)
REMARK    1  A    between atoms: C1_1  and  C2_2
REMARK    2  A    between atoms: C4_4  and  O4_30
REMARK    3  A    between atoms: C7_7  and  C8_8
REMARK    4  A    between atoms: C9_9  and  O2_23
REMARK    5  A    between atoms: C13_13  and  O1_14
REMARK    6  A    between atoms: O1_14  and  C14_15
REMARK    7  A    between atoms: C15_16  and  C19_22
REMARK    8  A    between atoms: C16_18  and  C18_21
REMARK    9  A    between atoms: C23_27  and  O3_28
REMARK   10  A    between atoms: O3_28  and  C24_29
REMARK   11  A    between atoms: O4_30  and  C25_31
REMARK                            x       y       z     vdW  Elec       q    Type
REMARK                         _______ _______ _______ _____ _____    ______ ____
ROOT
ATOM     16  C   UNL     1      46.609  14.133  19.608  0.00  0.00    -0.084 A 
ATOM     17  C   UNL     1      46.038  13.195  18.741  0.00  0.00    +0.152 A 
ATOM     20  C   UNL     1      46.807  12.159  18.224  0.00  0.00    -0.011 A 
ATOM     21  C   UNL     1      48.138  12.056  18.554  0.00  0.00    -0.035 A 
ATOM     22  C   UNL     1      48.726  12.991  19.417  0.00  0.00    -0.143 A 
ATOM     23  C   UNL     1      50.153  12.845  19.747  0.00  0.00    +0.218 C 
ATOM     24  C   UNL     1      50.721  13.530  20.962  0.00  0.00    +0.137 C 
ATOM     25  N   UNL     1      50.917  12.128  18.990  0.00  0.00    -0.512 NA
ATOM     26  C   UNL     1      50.419  11.458  17.793  0.00  0.00    +0.149 C 
ATOM     27  C   UNL     1      51.332  10.277  17.463  0.00  0.00    +0.055 C 
ATOM     28  C   UNL     1      48.994  10.946  18.000  0.00  0.00    +0.074 C 
ATOM     29  C   UNL     1      47.961  14.033  19.947  0.00  0.00    +0.165 A 
ENDROOT
BRANCH  16  15
ATOM      1  C   UNL     1      45.219  13.751  22.094  0.00  0.00    +0.095 C 
ATOM      2  C   UNL     1      45.109  15.061  21.357  0.00  0.00    -0.002 A 
ATOM      3  C   UNL     1      44.338  16.087  21.888  0.00  0.00    -0.104 A 
ATOM      4  C   UNL     1      44.215  17.293  21.233  0.00  0.00    +0.177 A 
ATOM      7  C   UNL     1      44.882  17.497  20.009  0.00  0.00    -0.100 A 
ATOM      8  C   UNL     1      45.676  16.460  19.465  0.00  0.00    +0.046 A 
ATOM      9  C   UNL     1      46.341  16.664  18.248  0.00  0.00    -0.039 A 
ATOM     10  C   UNL     1      46.220  17.856  17.597  0.00  0.00    +0.070 A 
ATOM     11  C   UNL     1      45.443  18.883  18.124  0.00  0.00    -0.113 A 
ATOM     12  C   UNL     1      44.776  18.720  19.317  0.00  0.00    +0.171 A 
ATOM     15  C   UNL     1      45.784  15.232  20.160  0.00  0.00    -0.083 A 
BRANCH   4   5
ATOM      5  O   UNL     1      43.450  18.281  21.764  0.00  0.00    -0.290 OA
ATOM      6  C   UNL     1      42.044  18.040  21.847  0.00  0.00    +0.239 C 
ENDBRANCH   4   5
BRANCH  12  13
ATOM     13  O   UNL     1      44.020  19.729  19.822  0.00  0.00    -0.291 OA
ATOM     14  C   UNL     1      43.066  20.328  18.943  0.00  0.00    +0.239 C 
ENDBRANCH  12  13
ENDBRANCH  16  15
BRANCH  17  18
ATOM     18  O   UNL     1      44.726  13.293  18.407  0.00  0.00    -0.485 OA
ATOM     19  H   UNL     1      44.410  14.203  18.317  0.00  0.00    +0.393 HD
ENDBRANCH  17  18
BRANCH  29  30
ATOM     30  O   UNL     1      48.527  14.940  20.783  0.00  0.00    -0.322 OA
ATOM     31  C   UNL     1      49.120  16.093  20.184  0.00  0.00    +0.231 C 
ENDBRANCH  29  30
TORSDOF 5
ENDMDL
MODEL 7
REMARK VINA RESULT:      -5.0      3.330      4.864
REMARK  Name = ZINC13359285
REMARK  11 active torsions:
REMARK  status: ('A' for Active; 'I' for Inactive)
REMARK    1  A    between atoms: C1_1  and  C2_2
REMARK    2  A    between atoms: C4_4  and  O4_30
REMARK    3  A    between atoms: C7_7  and  C8_8
REMARK    4  A    between atoms: C9_9  and  O2_23
REMARK    5  A    between atoms: C13_13  and  O1_14
REMARK    6  A    between atoms: O1_14  and  C14_15
REMARK    7  A    between atoms: C15_16  and  C19_22
REMARK    8  A    between atoms: C16_18  and  C18_21
REMARK    9  A    between atoms: C23_27  and  O3_28
REMARK   10  A    between atoms: O3_28  and  C24_29
REMARK   11  A    between atoms: O4_30  and  C25_31
REMARK                            x       y       z     vdW  Elec       q    Type
REMARK                         _______ _______ _______ _____ _____    ______ ____
ROOT
ATOM     16  C   UNL     1      46.050  17.483  19.551  0.00  0.00    -0.084 A 
ATOM     17  C   UNL     1      46.083  18.238  18.375  0.00  0.00    +0.152 A 
ATOM     20  C   UNL     1      45.069  19.147  18.097  0.00  0.00    -0.011 A 
ATOM     21  C   UNL     1      44.021  19.302  18.974  0.00  0.00    -0.035 A 
ATOM     22  C   UNL     1      43.970  18.550  20.155  0.00  0.00    -0.143 A 
ATOM     23  C   UNL     1      42.833  18.746  21.068  0.00  0.00    +0.218 C 
ATOM     24  C   UNL     1      42.934  18.306  22.505  0.00  0.00    +0.137 C 
ATOM     25  N   UNL     1      41.747  19.296  20.632  0.00  0.00    -0.512 NA
ATOM     26  C   UNL     1      41.595  19.724  19.246  0.00  0.00    +0.149 C 
ATOM     27  C   UNL     1      40.522  20.812  19.172  0.00  0.00    +0.055 C 
ATOM     28  C   UNL     1      42.907  20.277  18.691  0.00  0.00    +0.074 C 
ATOM     29  C   UNL     1      44.987  17.636  20.447  0.00  0.00    +0.165 A 
ENDROOT
BRANCH  16  15
ATOM      1  C   UNL     1      48.295  18.315  21.140  0.00  0.00    +0.095 C 
ATOM      2  C   UNL     1      48.222  16.906  20.609  0.00  0.00    -0.002 A 
ATOM      3  C   UNL     1      49.242  16.009  20.898  0.00  0.00    -0.104 A 
ATOM      4  C   UNL     1      49.204  14.717  20.421  0.00  0.00    +0.177 A 
ATOM      7  C   UNL     1      48.116  14.291  19.635  0.00  0.00    -0.100 A 
ATOM      8  C   UNL     1      47.068  15.196  19.343  0.00  0.00    +0.046 A 
ATOM      9  C   UNL     1      45.984  14.773  18.561  0.00  0.00    -0.039 A 
ATOM     10  C   UNL     1      45.945  13.495  18.088  0.00  0.00    +0.070 A 
ATOM     11  C   UNL     1      46.969  12.595  18.370  0.00  0.00    -0.113 A 
ATOM     12  C   UNL     1      48.049  12.975  19.134  0.00  0.00    +0.171 A 
ATOM     15  C   UNL     1      47.134  16.518  19.846  0.00  0.00    -0.083 A 
BRANCH   4   5
ATOM      5  O   UNL     1      50.215  13.856  20.707  0.00  0.00    -0.290 OA
ATOM      6  C   UNL     1      51.481  14.429  21.038  0.00  0.00    +0.239 C 
ENDBRANCH   4   5
BRANCH  12  13
ATOM     13  O   UNL     1      49.043  12.090  19.403  0.00  0.00    -0.291 OA
ATOM     14  C   UNL     1      49.650  11.437  18.287  0.00  0.00    +0.239 C 
ENDBRANCH  12  13
ENDBRANCH  16  15
BRANCH  17  18
ATOM     18  O   UNL     1      47.111  18.087  17.502  0.00  0.00    -0.485 OA
ATOM     19  H   UNL     1      46.968  17.395  16.841  0.00  0.00    +0.393 HD
ENDBRANCH  17  18
BRANCH  29  30
ATOM     30  O   UNL     1      44.942  16.905  21.589  0.00  0.00    -0.322 OA
ATOM     31  C   UNL     1      44.406  15.585  21.493  0.00  0.00    +0.231 C 
ENDBRANCH  29  30
TORSDOF 5
ENDMDL
MODEL 8
REMARK VINA RESULT:      -5.0      3.034      5.346
REMARK  Name = ZINC13359285
REMARK  11 active torsions:
REMARK  status: ('A' for Active; 'I' for Inactive)
REMARK    1  A    between atoms: C1_1  and  C2_2
REMARK    2  A    between atoms: C4_4  and  O4_30
REMARK    3  A    between atoms: C7_7  and  C8_8
REMARK    4  A    between atoms: C9_9  and  O2_23
REMARK    5  A    between atoms: C13_13  and  O1_14
REMARK    6  A    between atoms: O1_14  and  C14_15
REMARK    7  A    between atoms: C15_16  and  C19_22
REMARK    8  A    between atoms: C16_18  and  C18_21
REMARK    9  A    between atoms: C23_27  and  O3_28
REMARK   10  A    between atoms: O3_28  and  C24_29
REMARK   11  A    between atoms: O4_30  and  C25_31
REMARK                            x       y       z     vdW  Elec       q    Type
REMARK                         _______ _______ _______ _____ _____    ______ ____
ROOT
ATOM     16  C   UNL     1      47.355  17.884  18.920  0.00  0.00    -0.084 A 
ATOM     17  C   UNL     1      46.307  18.224  18.058  0.00  0.00    +0.152 A 
ATOM     20  C   UNL     1      45.730  19.487  18.119  0.00  0.00    -0.011 A 
ATOM     21  C   UNL     1      46.182  20.409  19.035  0.00  0.00    -0.035 A 
ATOM     22  C   UNL     1      47.228  20.083  19.909  0.00  0.00    -0.143 A 
ATOM     23  C   UNL     1      47.684  21.097  20.873  0.00  0.00    +0.218 C 
ATOM     24  C   UNL     1      49.038  20.970  21.519  0.00  0.00    +0.137 C 
ATOM     25  N   UNL     1      46.917  22.096  21.164  0.00  0.00    -0.512 NA
ATOM     26  C   UNL     1      45.590  22.255  20.578  0.00  0.00    +0.149 C 
ATOM     27  C   UNL     1      45.192  23.731  20.630  0.00  0.00    +0.055 C 
ATOM     28  C   UNL     1      45.568  21.782  19.125  0.00  0.00    +0.074 C 
ATOM     29  C   UNL     1      47.819  18.817  19.853  0.00  0.00    +0.165 A 
ENDROOT
BRANCH  16  15
ATOM      1  C   UNL     1      46.096  15.678  20.263  0.00  0.00    +0.095 C 
ATOM      2  C   UNL     1      47.373  15.467  19.491  0.00  0.00    -0.002 A 
ATOM      3  C   UNL     1      47.937  14.199  19.426  0.00  0.00    -0.104 A 
ATOM      4  C   UNL     1      49.107  13.979  18.734  0.00  0.00    +0.177 A 
ATOM      7  C   UNL     1      49.744  15.049  18.074  0.00  0.00    -0.100 A 
ATOM      8  C   UNL     1      49.172  16.342  18.129  0.00  0.00    +0.046 A 
ATOM      9  C   UNL     1      49.805  17.407  17.472  0.00  0.00    -0.039 A 
ATOM     10  C   UNL     1      50.964  17.191  16.786  0.00  0.00    +0.070 A 
ATOM     11  C   UNL     1      51.534  15.923  16.725  0.00  0.00    -0.113 A 
ATOM     12  C   UNL     1      50.941  14.854  17.358  0.00  0.00    +0.171 A 
ATOM     15  C   UNL     1      47.969  16.539  18.849  0.00  0.00    -0.083 A 
BRANCH   4   5
ATOM      5  O   UNL     1      49.647  12.733  18.688  0.00  0.00    -0.290 OA
ATOM      6  C   UNL     1      48.762  11.654  18.384  0.00  0.00    +0.239 C 
ENDBRANCH   4   5
BRANCH  12  13
ATOM     13  O   UNL     1      51.506  13.620  17.291  0.00  0.00    -0.291 OA
ATOM     14  C   UNL     1      51.577  13.007  16.003  0.00  0.00    +0.239 C 
ENDBRANCH  12  13
ENDBRANCH  16  15
BRANCH  17  18
ATOM     18  O   UNL     1      45.852  17.318  17.156  0.00  0.00    -0.485 OA
ATOM     19  H   UNL     1      46.201  16.425  17.285  0.00  0.00    +0.393 HD
ENDBRANCH  17  18
BRANCH  29  30
ATOM     30  O   UNL     1      48.832  18.497  20.697  0.00  0.00    -0.322 OA
ATOM     31  C   UNL     1      48.479  17.832  21.911  0.00  0.00    +0.231 C 
ENDBRANCH  29  30
TORSDOF 5
ENDMDL
MODEL 9
REMARK VINA RESULT:      -5.0      3.369      5.741
REMARK  Name = ZINC13359285
REMARK  11 active torsions:
REMARK  status: ('A' for Active; 'I' for Inactive)
REMARK    1  A    between atoms: C1_1  and  C2_2
REMARK    2  A    between atoms: C4_4  and  O4_30
REMARK    3  A    between atoms: C7_7  and  C8_8
REMARK    4  A    between atoms: C9_9  and  O2_23
REMARK    5  A    between atoms: C13_13  and  O1_14
REMARK    6  A    between atoms: O1_14  and  C14_15
REMARK    7  A    between atoms: C15_16  and  C19_22
REMARK    8  A    between atoms: C16_18  and  C18_21
REMARK    9  A    between atoms: C23_27  and  O3_28
REMARK   10  A    between atoms: O3_28  and  C24_29
REMARK   11  A    between atoms: O4_30  and  C25_31
REMARK                            x       y       z     vdW  Elec       q    Type
REMARK                         _______ _______ _______ _____ _____    ______ ____
ROOT
ATOM     16  C   UNL     1      47.753  17.916  18.540  0.00  0.00    -0.084 A 
ATOM     17  C   UNL     1      46.589  18.157  17.802  0.00  0.00    +0.152 A 
ATOM     20  C   UNL     1      45.858  19.321  18.005  0.00  0.00    -0.011 A 
ATOM     21  C   UNL     1      46.271  20.241  18.942  0.00  0.00    -0.035 A 
ATOM     22  C   UNL     1      47.432  20.012  19.693  0.00  0.00    -0.143 A 
ATOM     23  C   UNL     1      47.841  21.021  20.683  0.00  0.00    +0.218 C 
ATOM     24  C   UNL     1      49.257  21.046  21.195  0.00  0.00    +0.137 C 
ATOM     25  N   UNL     1      46.980  21.885  21.113  0.00  0.00    -0.512 NA
ATOM     26  C   UNL     1      45.593  21.892  20.660  0.00  0.00    +0.149 C 
ATOM     27  C   UNL     1      45.009  23.292  20.855  0.00  0.00    +0.055 C 
ATOM     28  C   UNL     1      45.492  21.507  19.185  0.00  0.00    +0.074 C 
ATOM     29  C   UNL     1      48.177  18.847  19.493  0.00  0.00    +0.165 A 
ENDROOT
BRANCH  16  15
ATOM      1  C   UNL     1      50.095  17.991  16.877  0.00  0.00    +0.095 C 
ATOM      2  C   UNL     1      49.661  16.698  17.518  0.00  0.00    -0.002 A 
ATOM      3  C   UNL     1      50.402  15.542  17.307  0.00  0.00    -0.104 A 
ATOM      4  C   UNL     1      50.025  14.345  17.875  0.00  0.00    +0.177 A 
ATOM      7  C   UNL     1      48.876  14.286  18.688  0.00  0.00    -0.100 A 
ATOM      8  C   UNL     1      48.119  15.460  18.915  0.00  0.00    +0.046 A 
ATOM      9  C   UNL     1      46.976  15.401  19.724  0.00  0.00    -0.039 A 
ATOM     10  C   UNL     1      46.601  14.218  20.287  0.00  0.00    +0.070 A 
ATOM     11  C   UNL     1      47.338  13.057  20.072  0.00  0.00    -0.113 A 
ATOM     12  C   UNL     1      48.466  13.076  19.283  0.00  0.00    +0.171 A 
ATOM     15  C   UNL     1      48.531  16.676  18.317  0.00  0.00    -0.083 A 
BRANCH   4   5
ATOM      5  O   UNL     1      50.758  13.224  17.650  0.00  0.00    -0.290 OA
ATOM      6  C   UNL     1      51.202  12.997  16.311  0.00  0.00    +0.239 C 
ENDBRANCH   4   5
BRANCH  12  13
ATOM     13  O   UNL     1      49.178  11.937  19.079  0.00  0.00    -0.291 OA
ATOM     14  C   UNL     1      48.464  10.806  18.580  0.00  0.00    +0.239 C 
ENDBRANCH  12  13
ENDBRANCH  16  15
BRANCH  17  18
ATOM     18  O   UNL     1      46.173  17.251  16.880  0.00  0.00    -0.485 OA
ATOM     19  H   UNL     1      46.183  17.582  15.972  0.00  0.00    +0.393 HD
ENDBRANCH  17  18
BRANCH  29  30
ATOM     30  O   UNL     1      49.302  18.622  20.218  0.00  0.00    -0.322 OA
ATOM     31  C   UNL     1      49.168  17.814  21.388  0.00  0.00    +0.231 C 
ENDBRANCH  29  30
TORSDOF 5
ENDMDL
