MODEL 1
REMARK VINA RESULT:      -6.4      0.000      0.000
REMARK  Name = ZINC34729381
REMARK  8 active torsions:
REMARK  status: ('A' for Active; 'I' for Inactive)
REMARK    1  A    between atoms: C1_1  and  C2_2
REMARK    2  A    between atoms: C3_4  and  O7_33
REMARK    3  A    between atoms: C4_6  and  O6_32
REMARK    4  A    between atoms: C6_9  and  C7_12
REMARK    5  A    between atoms: C8_13  and  O5_30
REMARK    6  A    between atoms: C12_17  and  O2_18
REMARK    7  A    between atoms: C15_22  and  C16_24
REMARK    8  A    between atoms: O5_30  and  C22_31
REMARK                            x       y       z     vdW  Elec       q    Type
REMARK                         _______ _______ _______ _____ _____    ______ ____
ROOT
ATOM     11  C   UNL     1      44.860  17.945  19.899  0.00  0.00    -0.179 A 
ATOM     12  C   UNL     1      44.758  16.844  20.743  0.00  0.00    +0.221 A 
ATOM     15  C   UNL     1      45.281  15.617  20.367  0.00  0.00    -0.096 A 
ATOM     16  C   UNL     1      45.913  15.476  19.143  0.00  0.00    +0.210 A 
ATOM     17  C   UNL     1      46.018  16.589  18.288  0.00  0.00    -0.294 A 
ATOM     18  C   UNL     1      46.695  16.416  16.991  0.00  0.00    +0.425 A 
ATOM     19  C   UNL     1      47.199  15.128  16.686  0.00  0.00    -0.144 A 
ATOM     20  C   UNL     1      47.046  14.119  17.582  0.00  0.00    +0.203 A 
ATOM     27  O   UNL     1      46.814  17.346  16.210  0.00  0.00    -0.455 OA
ATOM     28  O   UNL     1      46.429  14.289  18.762  0.00  0.00    -0.219 OA
ATOM     29  C   UNL     1      45.483  17.825  18.671  0.00  0.00    +0.267 A 
ENDROOT
BRANCH  11  10
ATOM      1  C   UNL     1      41.665  21.293  18.601  0.00  0.00    +0.057 C 
ATOM      2  C   UNL     1      42.692  20.947  19.681  0.00  0.00    +0.134 C 
ATOM      3  C   UNL     1      43.752  22.050  19.749  0.00  0.00    +0.162 C 
ATOM      6  C   UNL     1      44.809  21.668  20.790  0.00  0.00    +0.180 C 
ATOM      9  C   UNL     1      45.408  20.309  20.418  0.00  0.00    -0.012 C 
ATOM     10  C   UNL     1      44.285  19.273  20.323  0.00  0.00    +0.238 C 
ATOM     32  O   UNL     1      43.321  19.704  19.361  0.00  0.00    -0.352 OA
BRANCH   3   4
ATOM      4  O   UNL     1      43.134  23.283  20.126  0.00  0.00    -0.550 OA
ATOM      5  H   UNL     1      43.450  23.640  20.967  0.00  0.00    +0.378 HD
ENDBRANCH   3   4
BRANCH   6   7
ATOM      7  O   UNL     1      44.201  21.586  22.081  0.00  0.00    -0.551 OA
ATOM      8  H   UNL     1      44.763  21.907  22.801  0.00  0.00    +0.378 HD
ENDBRANCH   6   7
ENDBRANCH  11  10
BRANCH  20  21
ATOM     21  C   UNL     1      47.580  12.784  17.246  0.00  0.00    -0.073 A 
ATOM     22  C   UNL     1      47.537  11.753  18.187  0.00  0.00    +0.055 A 
ATOM     23  C   UNL     1      48.038  10.509  17.866  0.00  0.00    +0.014 A 
ATOM     24  C   UNL     1      48.584  10.281  16.615  0.00  0.00    +0.037 A 
ATOM     25  C   UNL     1      48.630  11.297  15.677  0.00  0.00    +0.009 A 
ATOM     26  C   UNL     1      48.127  12.545  15.983  0.00  0.00    +0.054 A 
ENDBRANCH  20  21
BRANCH  12  13
ATOM     13  O   UNL     1      44.141  16.973  21.945  0.00  0.00    -0.299 OA
ATOM     14  C   UNL     1      43.560  15.794  22.505  0.00  0.00    +0.256 C 
ENDBRANCH  12  13
BRANCH  29  30
ATOM     30  O   UNL     1      45.579  18.897  17.845  0.00  0.00    -0.451 OA
ATOM     31  H   UNL     1      46.019  19.661  18.241  0.00  0.00    +0.396 HD
ENDBRANCH  29  30
TORSDOF 6
ENDMDL
MODEL 2
REMARK VINA RESULT:      -6.1      3.134      9.148
REMARK  Name = ZINC34729381
REMARK  8 active torsions:
REMARK  status: ('A' for Active; 'I' for Inactive)
REMARK    1  A    between atoms: C1_1  and  C2_2
REMARK    2  A    between atoms: C3_4  and  O7_33
REMARK    3  A    between atoms: C4_6  and  O6_32
REMARK    4  A    between atoms: C6_9  and  C7_12
REMARK    5  A    between atoms: C8_13  and  O5_30
REMARK    6  A    between atoms: C12_17  and  O2_18
REMARK    7  A    between atoms: C15_22  and  C16_24
REMARK    8  A    between atoms: O5_30  and  C22_31
REMARK                            x       y       z     vdW  Elec       q    Type
REMARK                         _______ _______ _______ _____ _____    ______ ____
ROOT
ATOM     11  C   UNL     1      48.103  12.607  16.954  0.00  0.00    -0.179 A 
ATOM     12  C   UNL     1      46.860  12.077  17.283  0.00  0.00    +0.221 A 
ATOM     15  C   UNL     1      45.958  12.809  18.040  0.00  0.00    -0.096 A 
ATOM     16  C   UNL     1      46.290  14.082  18.477  0.00  0.00    +0.210 A 
ATOM     17  C   UNL     1      47.547  14.620  18.145  0.00  0.00    -0.294 A 
ATOM     18  C   UNL     1      47.878  15.974  18.620  0.00  0.00    +0.425 A 
ATOM     19  C   UNL     1      46.900  16.652  19.388  0.00  0.00    -0.144 A 
ATOM     20  C   UNL     1      45.715  16.042  19.653  0.00  0.00    +0.203 A 
ATOM     27  O   UNL     1      48.953  16.491  18.362  0.00  0.00    -0.455 OA
ATOM     28  O   UNL     1      45.424  14.808  19.214  0.00  0.00    -0.219 OA
ATOM     29  C   UNL     1      48.455  13.873  17.385  0.00  0.00    +0.267 A 
ENDROOT
BRANCH  11  10
ATOM      1  C   UNL     1      52.659  11.081  16.855  0.00  0.00    +0.057 C 
ATOM      2  C   UNL     1      51.343  11.032  16.075  0.00  0.00    +0.134 C 
ATOM      3  C   UNL     1      51.557  11.618  14.677  0.00  0.00    +0.162 C 
ATOM      6  C   UNL     1      50.223  11.620  13.923  0.00  0.00    +0.180 C 
ATOM      9  C   UNL     1      49.194  12.413  14.734  0.00  0.00    -0.012 C 
ATOM     10  C   UNL     1      49.071  11.797  16.131  0.00  0.00    +0.238 C 
ATOM     32  O   UNL     1      50.351  11.797  16.764  0.00  0.00    -0.352 OA
BRANCH   3   4
ATOM      4  O   UNL     1      52.507  10.820  13.966  0.00  0.00    -0.550 OA
ATOM      5  H   UNL     1      52.619   9.929  14.325  0.00  0.00    +0.378 HD
ENDBRANCH   3   4
BRANCH   6   7
ATOM      7  O   UNL     1      49.768  10.277  13.753  0.00  0.00    -0.551 OA
ATOM      8  H   UNL     1      49.878   9.935  12.854  0.00  0.00    +0.378 HD
ENDBRANCH   6   7
ENDBRANCH  11  10
BRANCH  20  21
ATOM     21  C   UNL     1      44.708  16.767  20.455  0.00  0.00    -0.073 A 
ATOM     22  C   UNL     1      44.252  16.229  21.661  0.00  0.00    +0.055 A 
ATOM     23  C   UNL     1      43.312  16.910  22.404  0.00  0.00    +0.014 A 
ATOM     24  C   UNL     1      42.819  18.124  21.958  0.00  0.00    +0.037 A 
ATOM     25  C   UNL     1      43.266  18.663  20.765  0.00  0.00    +0.009 A 
ATOM     26  C   UNL     1      44.211  17.995  20.014  0.00  0.00    +0.054 A 
ENDBRANCH  20  21
BRANCH  12  13
ATOM     13  O   UNL     1      46.526  10.832  16.858  0.00  0.00    -0.299 OA
ATOM     14  C   UNL     1      45.531  10.740  15.837  0.00  0.00    +0.256 C 
ENDBRANCH  12  13
BRANCH  29  30
ATOM     30  O   UNL     1      49.669  14.389  17.068  0.00  0.00    -0.451 OA
ATOM     31  H   UNL     1      49.882  15.210  17.533  0.00  0.00    +0.396 HD
ENDBRANCH  29  30
TORSDOF 6
ENDMDL
MODEL 3
REMARK VINA RESULT:      -5.9      3.553      8.354
REMARK  Name = ZINC34729381
REMARK  8 active torsions:
REMARK  status: ('A' for Active; 'I' for Inactive)
REMARK    1  A    between atoms: C1_1  and  C2_2
REMARK    2  A    between atoms: C3_4  and  O7_33
REMARK    3  A    between atoms: C4_6  and  O6_32
REMARK    4  A    between atoms: C6_9  and  C7_12
REMARK    5  A    between atoms: C8_13  and  O5_30
REMARK    6  A    between atoms: C12_17  and  O2_18
REMARK    7  A    between atoms: C15_22  and  C16_24
REMARK    8  A    between atoms: O5_30  and  C22_31
REMARK                            x       y       z     vdW  Elec       q    Type
REMARK                         _______ _______ _______ _____ _____    ______ ____
ROOT
ATOM     11  C   UNL     1      48.408  17.766  18.340  0.00  0.00    -0.179 A 
ATOM     12  C   UNL     1      47.412  17.041  17.695  0.00  0.00    +0.221 A 
ATOM     15  C   UNL     1      46.093  17.466  17.733  0.00  0.00    -0.096 A 
ATOM     16  C   UNL     1      45.755  18.623  18.417  0.00  0.00    +0.210 A 
ATOM     17  C   UNL     1      46.762  19.358  19.069  0.00  0.00    -0.294 A 
ATOM     18  C   UNL     1      46.380  20.585  19.789  0.00  0.00    +0.425 A 
ATOM     19  C   UNL     1      45.011  20.947  19.778  0.00  0.00    -0.144 A 
ATOM     20  C   UNL     1      44.117  20.167  19.117  0.00  0.00    +0.203 A 
ATOM     27  O   UNL     1      47.211  21.262  20.373  0.00  0.00    -0.455 OA
ATOM     28  O   UNL     1      44.476  19.052  18.463  0.00  0.00    -0.219 OA
ATOM     29  C   UNL     1      48.091  18.921  19.032  0.00  0.00    +0.267 A 
ENDROOT
BRANCH  11  10
ATOM      1  C   UNL     1      52.146  16.652  21.148  0.00  0.00    +0.057 C 
ATOM      2  C   UNL     1      51.706  16.732  19.685  0.00  0.00    +0.134 C 
ATOM      3  C   UNL     1      52.621  17.698  18.929  0.00  0.00    +0.162 C 
ATOM      6  C   UNL     1      52.138  17.818  17.479  0.00  0.00    +0.180 C 
ATOM      9  C   UNL     1      50.677  18.278  17.477  0.00  0.00    -0.012 C 
ATOM     10  C   UNL     1      49.837  17.288  18.289  0.00  0.00    +0.238 C 
ATOM     32  O   UNL     1      50.358  17.201  19.616  0.00  0.00    -0.352 OA
BRANCH   3   4
ATOM      4  O   UNL     1      53.961  17.201  18.946  0.00  0.00    -0.550 OA
ATOM      5  H   UNL     1      54.071  16.352  18.495  0.00  0.00    +0.378 HD
ENDBRANCH   3   4
BRANCH   6   7
ATOM      7  O   UNL     1      52.242  16.547  16.835  0.00  0.00    -0.551 OA
ATOM      8  H   UNL     1      51.724  15.848  17.258  0.00  0.00    +0.378 HD
ENDBRANCH   6   7
ENDBRANCH  11  10
BRANCH  20  21
ATOM     21  C   UNL     1      42.694  20.563  19.117  0.00  0.00    -0.073 A 
ATOM     22  C   UNL     1      41.716  19.666  19.553  0.00  0.00    +0.055 A 
ATOM     23  C   UNL     1      40.389  20.042  19.549  0.00  0.00    +0.014 A 
ATOM     24  C   UNL     1      40.025  21.304  19.114  0.00  0.00    +0.037 A 
ATOM     25  C   UNL     1      40.988  22.198  18.681  0.00  0.00    +0.009 A 
ATOM     26  C   UNL     1      42.319  21.838  18.685  0.00  0.00    +0.054 A 
ENDBRANCH  20  21
BRANCH  12  13
ATOM     13  O   UNL     1      47.733  15.907  17.023  0.00  0.00    -0.299 OA
ATOM     14  C   UNL     1      46.675  14.980  16.770  0.00  0.00    +0.256 C 
ENDBRANCH  12  13
BRANCH  29  30
ATOM     30  O   UNL     1      49.062  19.626  19.665  0.00  0.00    -0.451 OA
ATOM     31  H   UNL     1      48.768  20.057  20.479  0.00  0.00    +0.396 HD
ENDBRANCH  29  30
TORSDOF 6
ENDMDL
MODEL 4
REMARK VINA RESULT:      -5.8      1.763      2.346
REMARK  Name = ZINC34729381
REMARK  8 active torsions:
REMARK  status: ('A' for Active; 'I' for Inactive)
REMARK    1  A    between atoms: C1_1  and  C2_2
REMARK    2  A    between atoms: C3_4  and  O7_33
REMARK    3  A    between atoms: C4_6  and  O6_32
REMARK    4  A    between atoms: C6_9  and  C7_12
REMARK    5  A    between atoms: C8_13  and  O5_30
REMARK    6  A    between atoms: C12_17  and  O2_18
REMARK    7  A    between atoms: C15_22  and  C16_24
REMARK    8  A    between atoms: O5_30  and  C22_31
REMARK                            x       y       z     vdW  Elec       q    Type
REMARK                         _______ _______ _______ _____ _____    ______ ____
ROOT
ATOM     11  C   UNL     1      45.005  19.730  20.053  0.00  0.00    -0.179 A 
ATOM     12  C   UNL     1      44.079  18.726  20.318  0.00  0.00    +0.221 A 
ATOM     15  C   UNL     1      44.326  17.419  19.928  0.00  0.00    -0.096 A 
ATOM     16  C   UNL     1      45.502  17.101  19.268  0.00  0.00    +0.210 A 
ATOM     17  C   UNL     1      46.439  18.115  19.000  0.00  0.00    -0.294 A 
ATOM     18  C   UNL     1      47.682  17.753  18.298  0.00  0.00    +0.425 A 
ATOM     19  C   UNL     1      47.854  16.395  17.935  0.00  0.00    -0.144 A 
ATOM     20  C   UNL     1      46.886  15.492  18.241  0.00  0.00    +0.203 A 
ATOM     27  O   UNL     1      48.530  18.592  18.038  0.00  0.00    -0.455 OA
ATOM     28  O   UNL     1      45.758  15.833  18.883  0.00  0.00    -0.219 OA
ATOM     29  C   UNL     1      46.182  19.434  19.391  0.00  0.00    +0.267 A 
ENDROOT
BRANCH  11  10
ATOM      1  C   UNL     1      44.914  24.252  18.427  0.00  0.00    +0.057 C 
ATOM      2  C   UNL     1      44.673  23.405  19.678  0.00  0.00    +0.134 C 
ATOM      3  C   UNL     1      45.603  23.876  20.799  0.00  0.00    +0.162 C 
ATOM      6  C   UNL     1      45.399  22.986  22.029  0.00  0.00    +0.180 C 
ATOM      9  C   UNL     1      45.652  21.527  21.637  0.00  0.00    -0.012 C 
ATOM     10  C   UNL     1      44.720  21.147  20.483  0.00  0.00    +0.238 C 
ATOM     32  O   UNL     1      44.940  22.032  19.384  0.00  0.00    -0.352 OA
BRANCH   3   4
ATOM      4  O   UNL     1      45.299  25.232  21.135  0.00  0.00    -0.550 OA
ATOM      5  H   UNL     1      45.190  25.811  20.368  0.00  0.00    +0.378 HD
ENDBRANCH   3   4
BRANCH   6   7
ATOM      7  O   UNL     1      44.059  23.128  22.505  0.00  0.00    -0.551 OA
ATOM      8  H   UNL     1      43.995  23.515  23.390  0.00  0.00    +0.378 HD
ENDBRANCH   6   7
ENDBRANCH  11  10
BRANCH  20  21
ATOM     21  C   UNL     1      47.085  14.081  17.855  0.00  0.00    -0.073 A 
ATOM     22  C   UNL     1      48.375  13.562  17.729  0.00  0.00    +0.055 A 
ATOM     23  C   UNL     1      48.553  12.243  17.368  0.00  0.00    +0.014 A 
ATOM     24  C   UNL     1      47.456  11.434  17.128  0.00  0.00    +0.037 A 
ATOM     25  C   UNL     1      46.175  11.941  17.251  0.00  0.00    +0.009 A 
ATOM     26  C   UNL     1      45.982  13.256  17.618  0.00  0.00    +0.054 A 
ENDBRANCH  20  21
BRANCH  12  13
ATOM     13  O   UNL     1      42.925  19.029  20.965  0.00  0.00    -0.299 OA
ATOM     14  C   UNL     1      42.632  18.286  22.150  0.00  0.00    +0.256 C 
ENDBRANCH  12  13
BRANCH  29  30
ATOM     30  O   UNL     1      47.083  20.414  19.128  0.00  0.00    -0.451 OA
ATOM     31  H   UNL     1      47.664  20.624  19.871  0.00  0.00    +0.396 HD
ENDBRANCH  29  30
TORSDOF 6
ENDMDL
MODEL 5
REMARK VINA RESULT:      -5.8      2.054      3.716
REMARK  Name = ZINC34729381
REMARK  8 active torsions:
REMARK  status: ('A' for Active; 'I' for Inactive)
REMARK    1  A    between atoms: C1_1  and  C2_2
REMARK    2  A    between atoms: C3_4  and  O7_33
REMARK    3  A    between atoms: C4_6  and  O6_32
REMARK    4  A    between atoms: C6_9  and  C7_12
REMARK    5  A    between atoms: C8_13  and  O5_30
REMARK    6  A    between atoms: C12_17  and  O2_18
REMARK    7  A    between atoms: C15_22  and  C16_24
REMARK    8  A    between atoms: O5_30  and  C22_31
REMARK                            x       y       z     vdW  Elec       q    Type
REMARK                         _______ _______ _______ _____ _____    ______ ____
ROOT
ATOM     11  C   UNL     1      46.604  17.249  18.879  0.00  0.00    -0.179 A 
ATOM     12  C   UNL     1      47.813  17.739  18.396  0.00  0.00    +0.221 A 
ATOM     15  C   UNL     1      48.650  16.932  17.641  0.00  0.00    -0.096 A 
ATOM     16  C   UNL     1      48.287  15.624  17.361  0.00  0.00    +0.210 A 
ATOM     17  C   UNL     1      47.065  15.127  17.849  0.00  0.00    -0.294 A 
ATOM     18  C   UNL     1      46.699  13.735  17.538  0.00  0.00    +0.425 A 
ATOM     19  C   UNL     1      47.613  12.980  16.762  0.00  0.00    -0.144 A 
ATOM     20  C   UNL     1      48.768  13.555  16.339  0.00  0.00    +0.203 A 
ATOM     27  O   UNL     1      45.652  13.251  17.935  0.00  0.00    -0.455 OA
ATOM     28  O   UNL     1      49.090  14.825  16.628  0.00  0.00    -0.219 OA
ATOM     29  C   UNL     1      46.226  15.946  18.615  0.00  0.00    +0.267 A 
ENDROOT
BRANCH  11  10
ATOM      1  C   UNL     1      43.313  17.144  22.380  0.00  0.00    +0.057 C 
ATOM      2  C   UNL     1      44.063  18.095  21.445  0.00  0.00    +0.134 C 
ATOM      3  C   UNL     1      43.057  18.864  20.585  0.00  0.00    +0.162 C 
ATOM      6  C   UNL     1      43.817  19.770  19.611  0.00  0.00    +0.180 C 
ATOM      9  C   UNL     1      44.766  18.913  18.769  0.00  0.00    -0.012 C 
ATOM     10  C   UNL     1      45.707  18.141  19.699  0.00  0.00    +0.238 C 
ATOM     32  O   UNL     1      44.935  17.343  20.598  0.00  0.00    -0.352 OA
BRANCH   3   4
ATOM      4  O   UNL     1      42.221  19.663  21.427  0.00  0.00    -0.550 OA
ATOM      5  H   UNL     1      41.744  19.157  22.100  0.00  0.00    +0.378 HD
ENDBRANCH   3   4
BRANCH   6   7
ATOM      7  O   UNL     1      44.570  20.737  20.346  0.00  0.00    -0.551 OA
ATOM      8  H   UNL     1      45.435  20.938  19.961  0.00  0.00    +0.378 HD
ENDBRANCH   6   7
ENDBRANCH  11  10
BRANCH  20  21
ATOM     21  C   UNL     1      49.707  12.751  15.530  0.00  0.00    -0.073 A 
ATOM     22  C   UNL     1      50.973  13.252  15.220  0.00  0.00    +0.055 A 
ATOM     23  C   UNL     1      51.843  12.495  14.464  0.00  0.00    +0.014 A 
ATOM     24  C   UNL     1      51.465  11.243  14.011  0.00  0.00    +0.037 A 
ATOM     25  C   UNL     1      50.213  10.740  14.316  0.00  0.00    +0.009 A 
ATOM     26  C   UNL     1      49.334  11.483  15.076  0.00  0.00    +0.054 A 
ENDBRANCH  20  21
BRANCH  12  13
ATOM     13  O   UNL     1      48.176  19.019  18.665  0.00  0.00    -0.299 OA
ATOM     14  C   UNL     1      49.567  19.268  18.876  0.00  0.00    +0.256 C 
ENDBRANCH  12  13
BRANCH  29  30
ATOM     30  O   UNL     1      45.050  15.466  19.090  0.00  0.00    -0.451 OA
ATOM     31  H   UNL     1      45.082  15.189  20.016  0.00  0.00    +0.396 HD
ENDBRANCH  29  30
TORSDOF 6
ENDMDL
MODEL 6
REMARK VINA RESULT:      -5.7      3.699      9.420
REMARK  Name = ZINC34729381
REMARK  8 active torsions:
REMARK  status: ('A' for Active; 'I' for Inactive)
REMARK    1  A    between atoms: C1_1  and  C2_2
REMARK    2  A    between atoms: C3_4  and  O7_33
REMARK    3  A    between atoms: C4_6  and  O6_32
REMARK    4  A    between atoms: C6_9  and  C7_12
REMARK    5  A    between atoms: C8_13  and  O5_30
REMARK    6  A    between atoms: C12_17  and  O2_18
REMARK    7  A    between atoms: C15_22  and  C16_24
REMARK    8  A    between atoms: O5_30  and  C22_31
REMARK                            x       y       z     vdW  Elec       q    Type
REMARK                         _______ _______ _______ _____ _____    ______ ____
ROOT
ATOM     11  C   UNL     1      50.484  15.287  17.317  0.00  0.00    -0.179 A 
ATOM     12  C   UNL     1      51.222  16.160  18.109  0.00  0.00    +0.221 A 
ATOM     15  C   UNL     1      50.633  17.293  18.649  0.00  0.00    -0.096 A 
ATOM     16  C   UNL     1      49.297  17.565  18.403  0.00  0.00    +0.210 A 
ATOM     17  C   UNL     1      48.548  16.683  17.603  0.00  0.00    -0.294 A 
ATOM     18  C   UNL     1      47.130  16.993  17.356  0.00  0.00    +0.425 A 
ATOM     19  C   UNL     1      46.608  18.170  17.946  0.00  0.00    -0.144 A 
ATOM     20  C   UNL     1      47.417  18.956  18.703  0.00  0.00    +0.203 A 
ATOM     27  O   UNL     1      46.432  16.264  16.669  0.00  0.00    -0.455 OA
ATOM     28  O   UNL     1      48.707  18.663  18.922  0.00  0.00    -0.219 OA
ATOM     29  C   UNL     1      49.150  15.544  17.056  0.00  0.00    +0.267 A 
ENDROOT
BRANCH  11  10
ATOM      1  C   UNL     1      51.114  12.905  13.191  0.00  0.00    +0.057 C 
ATOM      2  C   UNL     1      51.458  12.867  14.681  0.00  0.00    +0.134 C 
ATOM      3  C   UNL     1      50.925  11.570  15.295  0.00  0.00    +0.162 C 
ATOM      6  C   UNL     1      51.221  11.566  16.799  0.00  0.00    +0.180 C 
ATOM      9  C   UNL     1      50.594  12.811  17.433  0.00  0.00    -0.012 C 
ATOM     10  C   UNL     1      51.140  14.061  16.737  0.00  0.00    +0.238 C 
ATOM     32  O   UNL     1      50.859  13.986  15.338  0.00  0.00    -0.352 OA
BRANCH   3   4
ATOM      4  O   UNL     1      51.566  10.451  14.679  0.00  0.00    -0.550 OA
ATOM      5  H   UNL     1      50.967   9.884  14.173  0.00  0.00    +0.378 HD
ENDBRANCH   3   4
BRANCH   6   7
ATOM      7  O   UNL     1      52.635  11.582  17.007  0.00  0.00    -0.551 OA
ATOM      8  H   UNL     1      52.903  11.340  17.905  0.00  0.00    +0.378 HD
ENDBRANCH   6   7
ENDBRANCH  11  10
BRANCH  20  21
ATOM     21  C   UNL     1      46.853  20.179  19.309  0.00  0.00    -0.073 A 
ATOM     22  C   UNL     1      47.442  20.733  20.448  0.00  0.00    +0.055 A 
ATOM     23  C   UNL     1      46.910  21.875  21.009  0.00  0.00    +0.014 A 
ATOM     24  C   UNL     1      45.794  22.471  20.447  0.00  0.00    +0.037 A 
ATOM     25  C   UNL     1      45.206  21.928  19.319  0.00  0.00    +0.009 A 
ATOM     26  C   UNL     1      45.731  20.790  18.744  0.00  0.00    +0.054 A 
ENDBRANCH  20  21
BRANCH  12  13
ATOM     13  O   UNL     1      52.531  15.900  18.355  0.00  0.00    -0.299 OA
ATOM     14  C   UNL     1      53.223  16.811  19.212  0.00  0.00    +0.256 C 
ENDBRANCH  12  13
BRANCH  29  30
ATOM     30  O   UNL     1      48.430  14.695  16.280  0.00  0.00    -0.451 OA
ATOM     31  H   UNL     1      48.483  14.887  15.333  0.00  0.00    +0.396 HD
ENDBRANCH  29  30
TORSDOF 6
ENDMDL
MODEL 7
REMARK VINA RESULT:      -5.3      2.584      3.142
REMARK  Name = ZINC34729381
REMARK  8 active torsions:
REMARK  status: ('A' for Active; 'I' for Inactive)
REMARK    1  A    between atoms: C1_1  and  C2_2
REMARK    2  A    between atoms: C3_4  and  O7_33
REMARK    3  A    between atoms: C4_6  and  O6_32
REMARK    4  A    between atoms: C6_9  and  C7_12
REMARK    5  A    between atoms: C8_13  and  O5_30
REMARK    6  A    between atoms: C12_17  and  O2_18
REMARK    7  A    between atoms: C15_22  and  C16_24
REMARK    8  A    between atoms: O5_30  and  C22_31
REMARK                            x       y       z     vdW  Elec       q    Type
REMARK                         _______ _______ _______ _____ _____    ______ ____
ROOT
ATOM     11  C   UNL     1      47.169  18.551  19.343  0.00  0.00    -0.179 A 
ATOM     12  C   UNL     1      48.425  18.436  19.928  0.00  0.00    +0.221 A 
ATOM     15  C   UNL     1      49.306  17.446  19.519  0.00  0.00    -0.096 A 
ATOM     16  C   UNL     1      48.939  16.561  18.519  0.00  0.00    +0.210 A 
ATOM     17  C   UNL     1      47.670  16.676  17.925  0.00  0.00    -0.294 A 
ATOM     18  C   UNL     1      47.302  15.724  16.864  0.00  0.00    +0.425 A 
ATOM     19  C   UNL     1      48.261  14.744  16.507  0.00  0.00    -0.144 A 
ATOM     20  C   UNL     1      49.461  14.718  17.143  0.00  0.00    +0.203 A 
ATOM     27  O   UNL     1      46.214  15.777  16.314  0.00  0.00    -0.455 OA
ATOM     28  O   UNL     1      49.785  15.592  18.108  0.00  0.00    -0.219 OA
ATOM     29  C   UNL     1      46.783  17.674  18.346  0.00  0.00    +0.267 A 
ENDROOT
BRANCH  11  10
ATOM      1  C   UNL     1      42.590  19.324  20.580  0.00  0.00    +0.057 C 
ATOM      2  C   UNL     1      43.940  20.025  20.419  0.00  0.00    +0.134 C 
ATOM      3  C   UNL     1      43.808  21.158  19.398  0.00  0.00    +0.162 C 
ATOM      6  C   UNL     1      45.176  21.817  19.197  0.00  0.00    +0.180 C 
ATOM      9  C   UNL     1      46.182  20.751  18.755  0.00  0.00    -0.012 C 
ATOM     10  C   UNL     1      46.224  19.633  19.800  0.00  0.00    +0.238 C 
ATOM     32  O   UNL     1      44.914  19.085  19.961  0.00  0.00    -0.352 OA
BRANCH   3   4
ATOM      4  O   UNL     1      42.876  22.129  19.881  0.00  0.00    -0.550 OA
ATOM      5  H   UNL     1      43.259  23.008  20.015  0.00  0.00    +0.378 HD
ENDBRANCH   3   4
BRANCH   6   7
ATOM      7  O   UNL     1      45.608  22.404  20.426  0.00  0.00    -0.551 OA
ATOM      8  H   UNL     1      45.991  23.288  20.327  0.00  0.00    +0.378 HD
ENDBRANCH   6   7
ENDBRANCH  11  10
BRANCH  20  21
ATOM     21  C   UNL     1      50.447  13.689  16.756  0.00  0.00    -0.073 A 
ATOM     22  C   UNL     1      51.279  13.117  17.721  0.00  0.00    +0.055 A 
ATOM     23  C   UNL     1      52.198  12.157  17.352  0.00  0.00    +0.014 A 
ATOM     24  C   UNL     1      52.297  11.760  16.030  0.00  0.00    +0.037 A 
ATOM     25  C   UNL     1      51.476  12.322  15.069  0.00  0.00    +0.009 A 
ATOM     26  C   UNL     1      50.548  13.279  15.425  0.00  0.00    +0.054 A 
ENDBRANCH  20  21
BRANCH  12  13
ATOM     13  O   UNL     1      48.792  19.300  20.908  0.00  0.00    -0.299 OA
ATOM     14  C   UNL     1      50.035  19.985  20.737  0.00  0.00    +0.256 C 
ENDBRANCH  12  13
BRANCH  29  30
ATOM     30  O   UNL     1      45.555  17.783  17.778  0.00  0.00    -0.451 OA
ATOM     31  H   UNL     1      45.066  16.951  17.736  0.00  0.00    +0.396 HD
ENDBRANCH  29  30
TORSDOF 6
ENDMDL
MODEL 8
REMARK VINA RESULT:      -5.3      2.030      3.202
REMARK  Name = ZINC34729381
REMARK  8 active torsions:
REMARK  status: ('A' for Active; 'I' for Inactive)
REMARK    1  A    between atoms: C1_1  and  C2_2
REMARK    2  A    between atoms: C3_4  and  O7_33
REMARK    3  A    between atoms: C4_6  and  O6_32
REMARK    4  A    between atoms: C6_9  and  C7_12
REMARK    5  A    between atoms: C8_13  and  O5_30
REMARK    6  A    between atoms: C12_17  and  O2_18
REMARK    7  A    between atoms: C15_22  and  C16_24
REMARK    8  A    between atoms: O5_30  and  C22_31
REMARK                            x       y       z     vdW  Elec       q    Type
REMARK                         _______ _______ _______ _____ _____    ______ ____
ROOT
ATOM     11  C   UNL     1      46.261  18.801  19.590  0.00  0.00    -0.179 A 
ATOM     12  C   UNL     1      47.495  19.204  19.090  0.00  0.00    +0.221 A 
ATOM     15  C   UNL     1      48.325  18.299  18.447  0.00  0.00    -0.096 A 
ATOM     16  C   UNL     1      47.931  16.979  18.297  0.00  0.00    +0.210 A 
ATOM     17  C   UNL     1      46.683  16.570  18.801  0.00  0.00    -0.294 A 
ATOM     18  C   UNL     1      46.284  15.163  18.629  0.00  0.00    +0.425 A 
ATOM     19  C   UNL     1      47.193  14.305  17.961  0.00  0.00    -0.144 A 
ATOM     20  C   UNL     1      48.375  14.801  17.511  0.00  0.00    +0.203 A 
ATOM     27  O   UNL     1      45.214  14.751  19.047  0.00  0.00    -0.455 OA
ATOM     28  O   UNL     1      48.727  16.086  17.673  0.00  0.00    -0.219 OA
ATOM     29  C   UNL     1      45.851  17.487  19.454  0.00  0.00    +0.267 A 
ENDROOT
BRANCH  11  10
ATOM      1  C   UNL     1      44.601  23.299  19.258  0.00  0.00    +0.057 C 
ATOM      2  C   UNL     1      44.539  22.042  20.127  0.00  0.00    +0.134 C 
ATOM      3  C   UNL     1      45.025  22.374  21.540  0.00  0.00    +0.162 C 
ATOM      6  C   UNL     1      45.016  21.098  22.388  0.00  0.00    +0.180 C 
ATOM      9  C   UNL     1      45.889  20.040  21.707  0.00  0.00    -0.012 C 
ATOM     10  C   UNL     1      45.370  19.798  20.287  0.00  0.00    +0.238 C 
ATOM     32  O   UNL     1      45.376  21.029  19.563  0.00  0.00    -0.352 OA
BRANCH   3   4
ATOM      4  O   UNL     1      44.156  23.344  22.128  0.00  0.00    -0.550 OA
ATOM      5  H   UNL     1      44.449  23.661  22.994  0.00  0.00    +0.378 HD
ENDBRANCH   3   4
BRANCH   6   7
ATOM      7  O   UNL     1      43.678  20.611  22.505  0.00  0.00    -0.551 OA
ATOM      8  H   UNL     1      43.587  19.846  23.092  0.00  0.00    +0.378 HD
ENDBRANCH   6   7
ENDBRANCH  11  10
BRANCH  20  21
ATOM     21  C   UNL     1      49.308  13.891  16.817  0.00  0.00    -0.073 A 
ATOM     22  C   UNL     1      50.598  14.320  16.495  0.00  0.00    +0.055 A 
ATOM     23  C   UNL     1      51.464  13.465  15.847  0.00  0.00    +0.014 A 
ATOM     24  C   UNL     1      51.057  12.185  15.513  0.00  0.00    +0.037 A 
ATOM     25  C   UNL     1      49.781  11.753  15.828  0.00  0.00    +0.009 A 
ATOM     26  C   UNL     1      48.907  12.596  16.483  0.00  0.00    +0.054 A 
ENDBRANCH  20  21
BRANCH  12  13
ATOM     13  O   UNL     1      47.888  20.495  19.233  0.00  0.00    -0.299 OA
ATOM     14  C   UNL     1      49.289  20.760  19.134  0.00  0.00    +0.256 C 
ENDBRANCH  12  13
BRANCH  29  30
ATOM     30  O   UNL     1      44.650  17.092  19.946  0.00  0.00    -0.451 OA
ATOM     31  H   UNL     1      44.666  16.227  20.378  0.00  0.00    +0.396 HD
ENDBRANCH  29  30
TORSDOF 6
ENDMDL
MODEL 9
REMARK VINA RESULT:      -5.2      2.656      3.648
REMARK  Name = ZINC34729381
REMARK  8 active torsions:
REMARK  status: ('A' for Active; 'I' for Inactive)
REMARK    1  A    between atoms: C1_1  and  C2_2
REMARK    2  A    between atoms: C3_4  and  O7_33
REMARK    3  A    between atoms: C4_6  and  O6_32
REMARK    4  A    between atoms: C6_9  and  C7_12
REMARK    5  A    between atoms: C8_13  and  O5_30
REMARK    6  A    between atoms: C12_17  and  O2_18
REMARK    7  A    between atoms: C15_22  and  C16_24
REMARK    8  A    between atoms: O5_30  and  C22_31
REMARK                            x       y       z     vdW  Elec       q    Type
REMARK                         _______ _______ _______ _____ _____    ______ ____
ROOT
ATOM     11  C   UNL     1      46.689  17.913  19.368  0.00  0.00    -0.179 A 
ATOM     12  C   UNL     1      48.012  18.340  19.359  0.00  0.00    +0.221 A 
ATOM     15  C   UNL     1      49.039  17.450  19.084  0.00  0.00    -0.096 A 
ATOM     16  C   UNL     1      48.752  16.121  18.815  0.00  0.00    +0.210 A 
ATOM     17  C   UNL     1      47.414  15.688  18.824  0.00  0.00    -0.294 A 
ATOM     18  C   UNL     1      47.133  14.271  18.534  0.00  0.00    +0.425 A 
ATOM     19  C   UNL     1      48.240  13.430  18.264  0.00  0.00    -0.144 A 
ATOM     20  C   UNL     1      49.496  13.948  18.281  0.00  0.00    +0.203 A 
ATOM     27  O   UNL     1      45.992  13.839  18.529  0.00  0.00    -0.455 OA
ATOM     28  O   UNL     1      49.739  15.241  18.545  0.00  0.00    -0.219 OA
ATOM     29  C   UNL     1      46.382  16.591  19.107  0.00  0.00    +0.267 A 
ENDROOT
BRANCH  11  10
ATOM      1  C   UNL     1      42.807  18.538  22.133  0.00  0.00    +0.057 C 
ATOM      2  C   UNL     1      43.647  19.213  21.047  0.00  0.00    +0.134 C 
ATOM      3  C   UNL     1      42.768  19.499  19.827  0.00  0.00    +0.162 C 
ATOM      6  C   UNL     1      43.628  20.121  18.721  0.00  0.00    +0.180 C 
ATOM      9  C   UNL     1      44.783  19.170  18.395  0.00  0.00    -0.012 C 
ATOM     10  C   UNL     1      45.585  18.895  19.670  0.00  0.00    +0.238 C 
ATOM     32  O   UNL     1      44.720  18.348  20.666  0.00  0.00    -0.352 OA
BRANCH   3   4
ATOM      4  O   UNL     1      41.728  20.410  20.191  0.00  0.00    -0.550 OA
ATOM      5  H   UNL     1      41.936  20.956  20.962  0.00  0.00    +0.378 HD
ENDBRANCH   3   4
BRANCH   6   7
ATOM      7  O   UNL     1      44.150  21.373  19.169  0.00  0.00    -0.551 OA
ATOM      8  H   UNL     1      44.310  22.010  18.458  0.00  0.00    +0.378 HD
ENDBRANCH   6   7
ENDBRANCH  11  10
BRANCH  20  21
ATOM     21  C   UNL     1      50.636  13.054  17.996  0.00  0.00    -0.073 A 
ATOM     22  C   UNL     1      50.541  12.094  16.987  0.00  0.00    +0.055 A 
ATOM     23  C   UNL     1      51.610  11.263  16.727  0.00  0.00    +0.014 A 
ATOM     24  C   UNL     1      52.776  11.377  17.464  0.00  0.00    +0.037 A 
ATOM     25  C   UNL     1      52.877  12.326  18.465  0.00  0.00    +0.009 A 
ATOM     26  C   UNL     1      51.818  13.169  18.732  0.00  0.00    +0.054 A 
ENDBRANCH  20  21
BRANCH  12  13
ATOM     13  O   UNL     1      48.301  19.640  19.621  0.00  0.00    -0.299 OA
ATOM     14  C   UNL     1      49.351  20.237  18.856  0.00  0.00    +0.256 C 
ENDBRANCH  12  13
BRANCH  29  30
ATOM     30  O   UNL     1      45.092  16.173  19.121  0.00  0.00    -0.451 OA
ATOM     31  H   UNL     1      44.828  15.680  18.332  0.00  0.00    +0.396 HD
ENDBRANCH  29  30
TORSDOF 6
ENDMDL
