MODEL 1
REMARK VINA RESULT:      -6.9      0.000      0.000
REMARK  Name = ZINC95486170
REMARK  12 active torsions:
REMARK  status: ('A' for Active; 'I' for Inactive)
REMARK    1  A    between atoms: C1_1  and  C2_2
REMARK    2  A    between atoms: C4_6  and  O3_40
REMARK    3  A    between atoms: C6_9  and  C32_39
REMARK    4  A    between atoms: C7_10  and  C31_38
REMARK    5  A    between atoms: C10_13  and  C30_37
REMARK    6  A    between atoms: C11_14  and  C29_36
REMARK    7  A    between atoms: C14_17  and  C28_35
REMARK    8  A    between atoms: C15_18  and  C27_34
REMARK    9  A    between atoms: C17_20  and  C26_32
REMARK   10  A    between atoms: C21_27  and  C24_30
REMARK   11  A    between atoms: C21_27  and  C25_31
REMARK   12  A    between atoms: C26_32  and  O2_33
REMARK                            x       y       z     vdW  Elec       q    Type
REMARK                         _______ _______ _______ _____ _____    ______ ____
ROOT
ATOM      1  C   UNL     1      51.048  21.363  22.024  0.00  0.00    +0.040 C 
ATOM      2  C   UNL     1      50.877  20.976  20.544  0.00  0.00    -0.016 C 
ATOM      3  C   UNL     1      52.184  21.244  19.839  0.00  0.00    +0.341 C 
ATOM      4  C   UNL     1      52.631  20.493  18.620  0.00  0.00    +0.140 C 
ATOM      7  C   UNL     1      52.038  19.093  18.500  0.00  0.00    +0.060 C 
ATOM      8  C   UNL     1      50.581  19.064  18.994  0.00  0.00    -0.020 C 
ATOM      9  C   UNL     1      49.874  20.137  18.144  0.00  0.00    +0.026 C 
ATOM     10  C   UNL     1      49.966  17.686  18.744  0.00  0.00    -0.013 C 
ATOM     11  C   UNL     1      51.008  16.650  19.222  0.00  0.00    +0.013 C 
ATOM     12  C   UNL     1      49.810  17.414  17.240  0.00  0.00    +0.014 C 
ATOM     13  C   UNL     1      49.365  15.963  17.039  0.00  0.00    +0.014 C 
ATOM     14  C   UNL     1      48.004  15.727  17.687  0.00  0.00    -0.025 C 
ATOM     15  C   UNL     1      46.984  16.572  16.876  0.00  0.00    +0.010 C 
ATOM     16  C   UNL     1      47.987  16.111  19.161  0.00  0.00    -0.009 C 
ATOM     17  C   UNL     1      48.717  15.065  20.025  0.00  0.00    +0.012 C 
ATOM     18  C   UNL     1      46.523  16.073  19.627  0.00  0.00    +0.027 C 
ATOM     19  C   UNL     1      45.823  14.758  19.274  0.00  0.00    -0.003 C 
ATOM     23  C   UNL     1      46.709  13.730  18.618  0.00  0.00    +0.005 C 
ATOM     24  C   UNL     1      45.902  12.572  17.994  0.00  0.00    +0.002 C 
ATOM     25  C   UNL     1      46.908  11.489  17.594  0.00  0.00    +0.008 C 
ATOM     26  C   UNL     1      47.975  11.992  16.632  0.00  0.00    -0.061 C 
ATOM     27  C   UNL     1      47.376  12.171  15.234  0.00  0.00    +0.018 C 
ATOM     28  C   UNL     1      49.086  10.929  16.539  0.00  0.00    +0.013 C 
ATOM     29  C   UNL     1      48.616  13.306  17.091  0.00  0.00    +0.030 C 
ATOM     30  C   UNL     1      47.530  14.299  17.468  0.00  0.00    -0.006 C 
ATOM     31  C   UNL     1      48.616  17.484  19.426  0.00  0.00    -0.015 C 
ATOM     32  C   UNL     1      47.594  18.559  19.003  0.00  0.00    +0.015 C 
ATOM     33  C   UNL     1      48.814  17.717  20.934  0.00  0.00    +0.019 C 
ATOM     34  C   UNL     1      49.251  19.169  21.158  0.00  0.00    +0.016 C 
ATOM     35  O   UNL     1      52.911  22.118  20.291  0.00  0.00    -0.458 OA
ATOM     36  C   UNL     1      50.575  19.466  20.464  0.00  0.00    -0.026 C 
ATOM     37  C   UNL     1      51.696  18.786  21.272  0.00  0.00    +0.021 C 
ENDROOT
BRANCH   4   5
ATOM      5  O   UNL     1      52.391  21.257  17.435  0.00  0.00    -0.540 OA
ATOM      6  H   UNL     1      52.651  22.185  17.506  0.00  0.00    +0.382 HD
ENDBRANCH   4   5
BRANCH  19  20
ATOM     20  C   UNL     1      45.205  14.182  20.558  0.00  0.00    +0.162 C 
BRANCH  20  21
ATOM     21  O   UNL     1      44.838  15.252  21.431  0.00  0.00    -0.572 OA
ATOM     22  H   UNL     1      44.006  15.686  21.195  0.00  0.00    +0.378 HD
ENDBRANCH  20  21
ENDBRANCH  19  20
TORSDOF 3
ENDMDL
MODEL 2
REMARK VINA RESULT:      -6.8      2.675      5.063
REMARK  Name = ZINC95486170
REMARK  12 active torsions:
REMARK  status: ('A' for Active; 'I' for Inactive)
REMARK    1  A    between atoms: C1_1  and  C2_2
REMARK    2  A    between atoms: C4_6  and  O3_40
REMARK    3  A    between atoms: C6_9  and  C32_39
REMARK    4  A    between atoms: C7_10  and  C31_38
REMARK    5  A    between atoms: C10_13  and  C30_37
REMARK    6  A    between atoms: C11_14  and  C29_36
REMARK    7  A    between atoms: C14_17  and  C28_35
REMARK    8  A    between atoms: C15_18  and  C27_34
REMARK    9  A    between atoms: C17_20  and  C26_32
REMARK   10  A    between atoms: C21_27  and  C24_30
REMARK   11  A    between atoms: C21_27  and  C25_31
REMARK   12  A    between atoms: C26_32  and  O2_33
REMARK                            x       y       z     vdW  Elec       q    Type
REMARK                         _______ _______ _______ _____ _____    ______ ____
ROOT
ATOM      1  C   UNL     1      46.588  22.619  21.065  0.00  0.00    +0.040 C 
ATOM      2  C   UNL     1      45.928  21.229  21.112  0.00  0.00    -0.016 C 
ATOM      3  C   UNL     1      44.455  21.404  20.837  0.00  0.00    +0.341 C 
ATOM      4  C   UNL     1      43.599  20.338  20.220  0.00  0.00    +0.140 C 
ATOM      7  C   UNL     1      44.369  19.352  19.346  0.00  0.00    +0.060 C 
ATOM      8  C   UNL     1      45.756  19.051  19.939  0.00  0.00    -0.020 C 
ATOM      9  C   UNL     1      45.456  18.548  21.364  0.00  0.00    +0.026 C 
ATOM     10  C   UNL     1      46.457  17.966  19.120  0.00  0.00    -0.013 C 
ATOM     11  C   UNL     1      46.272  18.352  17.635  0.00  0.00    +0.013 C 
ATOM     12  C   UNL     1      45.738  16.616  19.262  0.00  0.00    +0.014 C 
ATOM     13  C   UNL     1      46.363  15.613  18.287  0.00  0.00    +0.014 C 
ATOM     14  C   UNL     1      47.832  15.383  18.627  0.00  0.00    -0.025 C 
ATOM     15  C   UNL     1      47.853  14.666  20.004  0.00  0.00    +0.010 C 
ATOM     16  C   UNL     1      48.629  16.681  18.671  0.00  0.00    -0.009 C 
ATOM     17  C   UNL     1      48.913  17.217  17.256  0.00  0.00    +0.012 C 
ATOM     18  C   UNL     1      50.007  16.351  19.266  0.00  0.00    +0.027 C 
ATOM     19  C   UNL     1      50.691  15.176  18.562  0.00  0.00    -0.003 C 
ATOM     23  C   UNL     1      49.932  14.621  17.384  0.00  0.00    +0.005 C 
ATOM     24  C   UNL     1      50.483  13.256  16.919  0.00  0.00    +0.002 C 
ATOM     25  C   UNL     1      49.807  12.930  15.586  0.00  0.00    +0.008 C 
ATOM     26  C   UNL     1      48.287  12.901  15.678  0.00  0.00    -0.061 C 
ATOM     27  C   UNL     1      47.831  11.630  16.399  0.00  0.00    +0.018 C 
ATOM     28  C   UNL     1      47.713  12.867  14.249  0.00  0.00    +0.013 C 
ATOM     29  C   UNL     1      47.713  14.132  16.389  0.00  0.00    +0.030 C 
ATOM     30  C   UNL     1      48.461  14.364  17.690  0.00  0.00    -0.006 C 
ATOM     31  C   UNL     1      47.929  17.783  19.477  0.00  0.00    -0.015 C 
ATOM     32  C   UNL     1      48.121  17.465  20.974  0.00  0.00    +0.015 C 
ATOM     33  C   UNL     1      48.631  19.138  19.280  0.00  0.00    +0.019 C 
ATOM     34  C   UNL     1      48.025  20.154  20.255  0.00  0.00    +0.016 C 
ATOM     35  O   UNL     1      43.939  22.473  21.133  0.00  0.00    -0.458 OA
ATOM     36  C   UNL     1      46.538  20.359  19.994  0.00  0.00    -0.026 C 
ATOM     37  C   UNL     1      46.393  21.193  18.708  0.00  0.00    +0.021 C 
ENDROOT
BRANCH   4   5
ATOM      5  O   UNL     1      42.838  19.653  21.219  0.00  0.00    -0.540 OA
ATOM      6  H   UNL     1      43.102  19.862  22.126  0.00  0.00    +0.382 HD
ENDBRANCH   4   5
BRANCH  19  20
ATOM     20  C   UNL     1      52.093  15.626  18.124  0.00  0.00    +0.162 C 
BRANCH  20  21
ATOM     21  O   UNL     1      52.273  17.005  18.449  0.00  0.00    -0.572 OA
ATOM     22  H   UNL     1      51.616  17.353  19.068  0.00  0.00    +0.378 HD
ENDBRANCH  20  21
ENDBRANCH  19  20
TORSDOF 3
ENDMDL
MODEL 3
REMARK VINA RESULT:      -6.1      3.348      5.122
REMARK  Name = ZINC95486170
REMARK  12 active torsions:
REMARK  status: ('A' for Active; 'I' for Inactive)
REMARK    1  A    between atoms: C1_1  and  C2_2
REMARK    2  A    between atoms: C4_6  and  O3_40
REMARK    3  A    between atoms: C6_9  and  C32_39
REMARK    4  A    between atoms: C7_10  and  C31_38
REMARK    5  A    between atoms: C10_13  and  C30_37
REMARK    6  A    between atoms: C11_14  and  C29_36
REMARK    7  A    between atoms: C14_17  and  C28_35
REMARK    8  A    between atoms: C15_18  and  C27_34
REMARK    9  A    between atoms: C17_20  and  C26_32
REMARK   10  A    between atoms: C21_27  and  C24_30
REMARK   11  A    between atoms: C21_27  and  C25_31
REMARK   12  A    between atoms: C26_32  and  O2_33
REMARK                            x       y       z     vdW  Elec       q    Type
REMARK                         _______ _______ _______ _____ _____    ______ ____
ROOT
ATOM      1  C   UNL     1      43.424  22.132  19.505  0.00  0.00    +0.040 C 
ATOM      2  C   UNL     1      44.833  21.793  20.023  0.00  0.00    -0.016 C 
ATOM      3  C   UNL     1      44.988  22.415  21.390  0.00  0.00    +0.341 C 
ATOM      4  C   UNL     1      45.898  21.864  22.447  0.00  0.00    +0.140 C 
ATOM      7  C   UNL     1      46.169  20.369  22.317  0.00  0.00    +0.060 C 
ATOM      8  C   UNL     1      46.279  19.952  20.840  0.00  0.00    -0.020 C 
ATOM      9  C   UNL     1      47.389  20.858  20.275  0.00  0.00    +0.026 C 
ATOM     10  C   UNL     1      46.679  18.479  20.735  0.00  0.00    -0.013 C 
ATOM     11  C   UNL     1      45.783  17.712  21.733  0.00  0.00    +0.013 C 
ATOM     12  C   UNL     1      48.110  18.257  21.248  0.00  0.00    +0.014 C 
ATOM     13  C   UNL     1      48.396  16.753  21.293  0.00  0.00    +0.014 C 
ATOM     14  C   UNL     1      48.316  16.152  19.893  0.00  0.00    -0.025 C 
ATOM     15  C   UNL     1      49.501  16.758  19.093  0.00  0.00    +0.010 C 
ATOM     16  C   UNL     1      46.986  16.441  19.211  0.00  0.00    -0.009 C 
ATOM     17  C   UNL     1      45.855  15.566  19.784  0.00  0.00    +0.012 C 
ATOM     18  C   UNL     1      47.124  16.016  17.740  0.00  0.00    +0.027 C 
ATOM     19  C   UNL     1      47.654  14.588  17.584  0.00  0.00    -0.003 C 
ATOM     23  C   UNL     1      47.863  13.849  18.881  0.00  0.00    +0.005 C 
ATOM     24  C   UNL     1      48.693  12.561  18.697  0.00  0.00    +0.002 C 
ATOM     25  C   UNL     1      48.616  11.786  20.014  0.00  0.00    +0.008 C 
ATOM     26  C   UNL     1      49.112  12.588  21.209  0.00  0.00    -0.061 C 
ATOM     27  C   UNL     1      50.640  12.686  21.175  0.00  0.00    +0.018 C 
ATOM     28  C   UNL     1      48.713  11.841  22.496  0.00  0.00    +0.013 C 
ATOM     29  C   UNL     1      48.506  13.994  21.271  0.00  0.00    +0.030 C 
ATOM     30  C   UNL     1      48.630  14.664  19.914  0.00  0.00    -0.006 C 
ATOM     31  C   UNL     1      46.566  17.912  19.323  0.00  0.00    -0.015 C 
ATOM     32  C   UNL     1      47.405  18.719  18.312  0.00  0.00    +0.015 C 
ATOM     33  C   UNL     1      45.113  18.107  18.855  0.00  0.00    +0.019 C 
ATOM     34  C   UNL     1      44.810  19.608  18.794  0.00  0.00    +0.016 C 
ATOM     35  O   UNL     1      44.333  23.417  21.642  0.00  0.00    -0.458 OA
ATOM     36  C   UNL     1      44.949  20.261  20.164  0.00  0.00    -0.026 C 
ATOM     37  C   UNL     1      43.736  19.840  21.014  0.00  0.00    +0.021 C 
ENDROOT
BRANCH   4   5
ATOM      5  O   UNL     1      47.120  22.605  22.504  0.00  0.00    -0.540 OA
ATOM      6  H   UNL     1      47.511  22.786  21.638  0.00  0.00    +0.382 HD
ENDBRANCH   4   5
BRANCH  19  20
ATOM     20  C   UNL     1      46.684  13.810  16.681  0.00  0.00    +0.162 C 
BRANCH  20  21
ATOM     21  O   UNL     1      47.013  14.048  15.312  0.00  0.00    -0.572 OA
ATOM     22  H   UNL     1      46.344  14.552  14.828  0.00  0.00    +0.378 HD
ENDBRANCH  20  21
ENDBRANCH  19  20
TORSDOF 3
ENDMDL
MODEL 4
REMARK VINA RESULT:      -5.9      3.077      6.992
REMARK  Name = ZINC95486170
REMARK  12 active torsions:
REMARK  status: ('A' for Active; 'I' for Inactive)
REMARK    1  A    between atoms: C1_1  and  C2_2
REMARK    2  A    between atoms: C4_6  and  O3_40
REMARK    3  A    between atoms: C6_9  and  C32_39
REMARK    4  A    between atoms: C7_10  and  C31_38
REMARK    5  A    between atoms: C10_13  and  C30_37
REMARK    6  A    between atoms: C11_14  and  C29_36
REMARK    7  A    between atoms: C14_17  and  C28_35
REMARK    8  A    between atoms: C15_18  and  C27_34
REMARK    9  A    between atoms: C17_20  and  C26_32
REMARK   10  A    between atoms: C21_27  and  C24_30
REMARK   11  A    between atoms: C21_27  and  C25_31
REMARK   12  A    between atoms: C26_32  and  O2_33
REMARK                            x       y       z     vdW  Elec       q    Type
REMARK                         _______ _______ _______ _____ _____    ______ ____
ROOT
ATOM      1  C   UNL     1      52.480  12.619  18.289  0.00  0.00    +0.040 C 
ATOM      2  C   UNL     1      51.062  12.790  17.714  0.00  0.00    -0.016 C 
ATOM      3  C   UNL     1      50.403  11.433  17.693  0.00  0.00    +0.341 C 
ATOM      4  C   UNL     1      48.918  11.236  17.785  0.00  0.00    +0.140 C 
ATOM      7  C   UNL     1      48.186  12.366  18.501  0.00  0.00    +0.060 C 
ATOM      8  C   UNL     1      48.815  13.732  18.171  0.00  0.00    -0.020 C 
ATOM      9  C   UNL     1      48.767  13.806  16.633  0.00  0.00    +0.026 C 
ATOM     10  C   UNL     1      47.988  14.859  18.792  0.00  0.00    -0.013 C 
ATOM     11  C   UNL     1      47.689  14.430  20.246  0.00  0.00    +0.013 C 
ATOM     12  C   UNL     1      46.607  14.962  18.126  0.00  0.00    +0.014 C 
ATOM     13  C   UNL     1      45.755  15.975  18.899  0.00  0.00    +0.014 C 
ATOM     14  C   UNL     1      46.392  17.360  18.844  0.00  0.00    -0.025 C 
ATOM     15  C   UNL     1      46.308  17.818  17.362  0.00  0.00    +0.010 C 
ATOM     16  C   UNL     1      47.833  17.358  19.338  0.00  0.00    -0.009 C 
ATOM     17  C   UNL     1      47.903  17.253  20.873  0.00  0.00    +0.012 C 
ATOM     18  C   UNL     1      48.435  18.731  18.996  0.00  0.00    +0.027 C 
ATOM     19  C   UNL     1      47.568  19.895  19.481  0.00  0.00    -0.003 C 
ATOM     23  C   UNL     1      46.344  19.487  20.261  0.00  0.00    +0.005 C 
ATOM     24  C   UNL     1      45.346  20.650  20.440  0.00  0.00    +0.002 C 
ATOM     25  C   UNL     1      44.291  20.184  21.447  0.00  0.00    +0.008 C 
ATOM     26  C   UNL     1      43.575  18.912  21.016  0.00  0.00    -0.061 C 
ATOM     27  C   UNL     1      42.587  19.225  19.888  0.00  0.00    +0.018 C 
ATOM     28  C   UNL     1      42.771  18.375  22.215  0.00  0.00    +0.013 C 
ATOM     29  C   UNL     1      44.541  17.811  20.564  0.00  0.00    +0.030 C 
ATOM     30  C   UNL     1      45.543  18.386  19.577  0.00  0.00    -0.006 C 
ATOM     31  C   UNL     1      48.668  16.222  18.734  0.00  0.00    -0.015 C 
ATOM     32  C   UNL     1      49.031  16.622  17.289  0.00  0.00    +0.015 C 
ATOM     33  C   UNL     1      50.026  16.099  19.448  0.00  0.00    +0.019 C 
ATOM     34  C   UNL     1      50.898  15.096  18.684  0.00  0.00    +0.016 C 
ATOM     35  O   UNL     1      51.121  10.447  17.597  0.00  0.00    -0.458 OA
ATOM     36  C   UNL     1      50.260  13.712  18.654  0.00  0.00    -0.026 C 
ATOM     37  C   UNL     1      50.410  13.092  20.055  0.00  0.00    +0.021 C 
ENDROOT
BRANCH   4   5
ATOM      5  O   UNL     1      48.355  10.995  16.493  0.00  0.00    -0.540 OA
ATOM      6  H   UNL     1      48.783  11.487  15.779  0.00  0.00    +0.382 HD
ENDBRANCH   4   5
BRANCH  19  20
ATOM     20  C   UNL     1      48.446  20.831  20.326  0.00  0.00    +0.162 C 
BRANCH  20  21
ATOM     21  O   UNL     1      49.775  20.839  19.802  0.00  0.00    -0.572 OA
ATOM     22  H   UNL     1      50.121  21.724  19.620  0.00  0.00    +0.378 HD
ENDBRANCH  20  21
ENDBRANCH  19  20
TORSDOF 3
ENDMDL
MODEL 5
REMARK VINA RESULT:      -5.8      1.884      2.498
REMARK  Name = ZINC95486170
REMARK  12 active torsions:
REMARK  status: ('A' for Active; 'I' for Inactive)
REMARK    1  A    between atoms: C1_1  and  C2_2
REMARK    2  A    between atoms: C4_6  and  O3_40
REMARK    3  A    between atoms: C6_9  and  C32_39
REMARK    4  A    between atoms: C7_10  and  C31_38
REMARK    5  A    between atoms: C10_13  and  C30_37
REMARK    6  A    between atoms: C11_14  and  C29_36
REMARK    7  A    between atoms: C14_17  and  C28_35
REMARK    8  A    between atoms: C15_18  and  C27_34
REMARK    9  A    between atoms: C17_20  and  C26_32
REMARK   10  A    between atoms: C21_27  and  C24_30
REMARK   11  A    between atoms: C21_27  and  C25_31
REMARK   12  A    between atoms: C26_32  and  O2_33
REMARK                            x       y       z     vdW  Elec       q    Type
REMARK                         _______ _______ _______ _____ _____    ______ ____
ROOT
ATOM      1  C   UNL     1      51.187  20.727  22.113  0.00  0.00    +0.040 C 
ATOM      2  C   UNL     1      51.023  20.384  20.621  0.00  0.00    -0.016 C 
ATOM      3  C   UNL     1      52.030  21.196  19.844  0.00  0.00    +0.341 C 
ATOM      4  C   UNL     1      52.603  20.758  18.529  0.00  0.00    +0.140 C 
ATOM      7  C   UNL     1      52.607  19.246  18.326  0.00  0.00    +0.060 C 
ATOM      8  C   UNL     1      51.345  18.603  18.927  0.00  0.00    -0.020 C 
ATOM      9  C   UNL     1      50.181  19.341  18.239  0.00  0.00    +0.026 C 
ATOM     10  C   UNL     1      51.306  17.109  18.599  0.00  0.00    -0.013 C 
ATOM     11  C   UNL     1      52.720  16.560  18.895  0.00  0.00    +0.013 C 
ATOM     12  C   UNL     1      51.108  16.879  17.093  0.00  0.00    +0.014 C 
ATOM     13  C   UNL     1      51.258  15.385  16.792  0.00  0.00    +0.014 C 
ATOM     14  C   UNL     1      50.183  14.583  17.520  0.00  0.00    -0.025 C 
ATOM     15  C   UNL     1      48.830  14.985  16.874  0.00  0.00    +0.010 C 
ATOM     16  C   UNL     1      50.176  14.847  19.020  0.00  0.00    -0.009 C 
ATOM     17  C   UNL     1      51.351  14.142  19.723  0.00  0.00    +0.012 C 
ATOM     18  C   UNL     1      48.908  14.195  19.594  0.00  0.00    +0.027 C 
ATOM     19  C   UNL     1      48.755  12.730  19.176  0.00  0.00    -0.003 C 
ATOM     23  C   UNL     1      49.900  12.185  18.360  0.00  0.00    +0.005 C 
ATOM     24  C   UNL     1      49.558  10.835  17.695  0.00  0.00    +0.002 C 
ATOM     25  C   UNL     1      50.861  10.277  17.119  0.00  0.00    +0.008 C 
ATOM     26  C   UNL     1      51.528  11.219  16.127  0.00  0.00    -0.061 C 
ATOM     27  C   UNL     1      50.758  11.216  14.803  0.00  0.00    +0.018 C 
ATOM     28  C   UNL     1      52.953  10.704  15.848  0.00  0.00    +0.013 C 
ATOM     29  C   UNL     1      51.639  12.654  16.655  0.00  0.00    +0.030 C 
ATOM     30  C   UNL     1      50.296  13.099  17.207  0.00  0.00    -0.006 C 
ATOM     31  C   UNL     1      50.232  16.342  19.362  0.00  0.00    -0.015 C 
ATOM     32  C   UNL     1      48.826  16.931  19.123  0.00  0.00    +0.015 C 
ATOM     33  C   UNL     1      50.484  16.553  20.865  0.00  0.00    +0.019 C 
ATOM     34  C   UNL     1      50.328  18.043  21.189  0.00  0.00    +0.016 C 
ATOM     35  O   UNL     1      52.394  22.264  20.317  0.00  0.00    -0.458 OA
ATOM     36  C   UNL     1      51.340  18.888  20.424  0.00  0.00    -0.026 C 
ATOM     37  C   UNL     1      52.720  18.678  21.075  0.00  0.00    +0.021 C 
ENDROOT
BRANCH   4   5
ATOM      5  O   UNL     1      51.951  21.421  17.442  0.00  0.00    -0.540 OA
ATOM      6  H   UNL     1      50.986  21.373  17.474  0.00  0.00    +0.382 HD
ENDBRANCH   4   5
BRANCH  19  20
ATOM     20  C   UNL     1      48.562  11.885  20.445  0.00  0.00    +0.162 C 
BRANCH  20  21
ATOM     21  O   UNL     1      47.773  12.613  21.386  0.00  0.00    -0.572 OA
ATOM     22  H   UNL     1      46.841  12.696  21.139  0.00  0.00    +0.378 HD
ENDBRANCH  20  21
ENDBRANCH  19  20
TORSDOF 3
ENDMDL
MODEL 6
REMARK VINA RESULT:      -5.8      3.041      5.679
REMARK  Name = ZINC95486170
REMARK  12 active torsions:
REMARK  status: ('A' for Active; 'I' for Inactive)
REMARK    1  A    between atoms: C1_1  and  C2_2
REMARK    2  A    between atoms: C4_6  and  O3_40
REMARK    3  A    between atoms: C6_9  and  C32_39
REMARK    4  A    between atoms: C7_10  and  C31_38
REMARK    5  A    between atoms: C10_13  and  C30_37
REMARK    6  A    between atoms: C11_14  and  C29_36
REMARK    7  A    between atoms: C14_17  and  C28_35
REMARK    8  A    between atoms: C15_18  and  C27_34
REMARK    9  A    between atoms: C17_20  and  C26_32
REMARK   10  A    between atoms: C21_27  and  C24_30
REMARK   11  A    between atoms: C21_27  and  C25_31
REMARK   12  A    between atoms: C26_32  and  O2_33
REMARK                            x       y       z     vdW  Elec       q    Type
REMARK                         _______ _______ _______ _____ _____    ______ ____
ROOT
ATOM      1  C   UNL     1      42.321  19.139  20.266  0.00  0.00    +0.040 C 
ATOM      2  C   UNL     1      43.596  19.569  19.516  0.00  0.00    -0.016 C 
ATOM      3  C   UNL     1      43.769  21.056  19.706  0.00  0.00    +0.341 C 
ATOM      4  C   UNL     1      45.103  21.741  19.674  0.00  0.00    +0.140 C 
ATOM      7  C   UNL     1      46.273  20.840  20.054  0.00  0.00    +0.060 C 
ATOM      8  C   UNL     1      46.070  19.412  19.517  0.00  0.00    -0.020 C 
ATOM      9  C   UNL     1      45.871  19.603  18.002  0.00  0.00    +0.026 C 
ATOM     10  C   UNL     1      47.311  18.561  19.795  0.00  0.00    -0.013 C 
ATOM     11  C   UNL     1      47.704  18.831  21.265  0.00  0.00    +0.013 C 
ATOM     12  C   UNL     1      48.513  19.053  18.976  0.00  0.00    +0.014 C 
ATOM     13  C   UNL     1      49.766  18.293  19.422  0.00  0.00    +0.014 C 
ATOM     14  C   UNL     1      49.610  16.800  19.150  0.00  0.00    -0.025 C 
ATOM     15  C   UNL     1      49.578  16.642  17.605  0.00  0.00    +0.010 C 
ATOM     16  C   UNL     1      48.355  16.220  19.788  0.00  0.00    -0.009 C 
ATOM     17  C   UNL     1      48.523  16.050  21.310  0.00  0.00    +0.012 C 
ATOM     18  C   UNL     1      48.177  14.797  19.236  0.00  0.00    +0.027 C 
ATOM     19  C   UNL     1      49.444  13.947  19.369  0.00  0.00    -0.003 C 
ATOM     23  C   UNL     1      50.587  14.628  20.079  0.00  0.00    +0.005 C 
ATOM     24  C   UNL     1      51.921  13.874  19.901  0.00  0.00    +0.002 C 
ATOM     25  C   UNL     1      52.928  14.513  20.861  0.00  0.00    +0.008 C 
ATOM     26  C   UNL     1      53.110  16.007  20.629  0.00  0.00    -0.061 C 
ATOM     27  C   UNL     1      53.934  16.242  19.359  0.00  0.00    +0.018 C 
ATOM     28  C   UNL     1      53.894  16.593  21.818  0.00  0.00    +0.013 C 
ATOM     29  C   UNL     1      51.778  16.757  20.525  0.00  0.00    +0.030 C 
ATOM     30  C   UNL     1      50.859  16.033  19.556  0.00  0.00    -0.006 C 
ATOM     31  C   UNL     1      47.106  17.073  19.530  0.00  0.00    -0.015 C 
ATOM     32  C   UNL     1      46.647  16.807  18.082  0.00  0.00    +0.015 C 
ATOM     33  C   UNL     1      45.928  16.600  20.398  0.00  0.00    +0.019 C 
ATOM     34  C   UNL     1      44.661  17.342  19.960  0.00  0.00    +0.016 C 
ATOM     35  O   UNL     1      42.766  21.730  19.897  0.00  0.00    -0.458 OA
ATOM     36  C   UNL     1      44.803  18.848  20.150  0.00  0.00    -0.026 C 
ATOM     37  C   UNL     1      44.707  19.146  21.657  0.00  0.00    +0.021 C 
ENDROOT
BRANCH   4   5
ATOM      5  O   UNL     1      45.324  22.366  18.407  0.00  0.00    -0.540 OA
ATOM      6  H   UNL     1      45.896  21.860  17.813  0.00  0.00    +0.382 HD
ENDBRANCH   4   5
BRANCH  19  20
ATOM     20  C   UNL     1      49.075  12.643  20.092  0.00  0.00    +0.162 C 
BRANCH  20  21
ATOM     21  O   UNL     1      47.703  12.689  20.489  0.00  0.00    -0.572 OA
ATOM     22  H   UNL     1      47.459  12.019  21.142  0.00  0.00    +0.378 HD
ENDBRANCH  20  21
ENDBRANCH  19  20
TORSDOF 3
ENDMDL
MODEL 7
REMARK VINA RESULT:      -5.7      2.913      4.518
REMARK  Name = ZINC95486170
REMARK  12 active torsions:
REMARK  status: ('A' for Active; 'I' for Inactive)
REMARK    1  A    between atoms: C1_1  and  C2_2
REMARK    2  A    between atoms: C4_6  and  O3_40
REMARK    3  A    between atoms: C6_9  and  C32_39
REMARK    4  A    between atoms: C7_10  and  C31_38
REMARK    5  A    between atoms: C10_13  and  C30_37
REMARK    6  A    between atoms: C11_14  and  C29_36
REMARK    7  A    between atoms: C14_17  and  C28_35
REMARK    8  A    between atoms: C15_18  and  C27_34
REMARK    9  A    between atoms: C17_20  and  C26_32
REMARK   10  A    between atoms: C21_27  and  C24_30
REMARK   11  A    between atoms: C21_27  and  C25_31
REMARK   12  A    between atoms: C26_32  and  O2_33
REMARK                            x       y       z     vdW  Elec       q    Type
REMARK                         _______ _______ _______ _____ _____    ______ ____
ROOT
ATOM      1  C   UNL     1      43.204  19.903  21.337  0.00  0.00    +0.040 C 
ATOM      2  C   UNL     1      44.627  19.970  20.753  0.00  0.00    -0.016 C 
ATOM      3  C   UNL     1      45.438  20.911  21.611  0.00  0.00    +0.341 C 
ATOM      4  C   UNL     1      46.926  20.805  21.768  0.00  0.00    +0.140 C 
ATOM      7  C   UNL     1      47.477  19.401  21.544  0.00  0.00    +0.060 C 
ATOM      8  C   UNL     1      46.718  18.682  20.415  0.00  0.00    -0.020 C 
ATOM      9  C   UNL     1      46.855  19.628  19.206  0.00  0.00    +0.026 C 
ATOM     10  C   UNL     1      47.369  17.330  20.118  0.00  0.00    -0.013 C 
ATOM     11  C   UNL     1      47.622  16.658  21.487  0.00  0.00    +0.013 C 
ATOM     12  C   UNL     1      48.769  17.512  19.511  0.00  0.00    +0.014 C 
ATOM     13  C   UNL     1      49.447  16.143  19.403  0.00  0.00    +0.014 C 
ATOM     14  C   UNL     1      48.661  15.229  18.468  0.00  0.00    -0.025 C 
ATOM     15  C   UNL     1      48.786  15.848  17.049  0.00  0.00    +0.010 C 
ATOM     16  C   UNL     1      47.202  15.091  18.881  0.00  0.00    -0.009 C 
ATOM     17  C   UNL     1      47.046  14.173  20.108  0.00  0.00    +0.012 C 
ATOM     18  C   UNL     1      46.468  14.370  17.738  0.00  0.00    +0.027 C 
ATOM     19  C   UNL     1      47.164  13.075  17.313  0.00  0.00    -0.003 C 
ATOM     23  C   UNL     1      48.374  12.711  18.135  0.00  0.00    +0.005 C 
ATOM     24  C   UNL     1      49.219  11.599  17.478  0.00  0.00    +0.002 C 
ATOM     25  C   UNL     1      50.254  11.152  18.512  0.00  0.00    +0.008 C 
ATOM     26  C   UNL     1      51.138  12.289  19.005  0.00  0.00    -0.061 C 
ATOM     27  C   UNL     1      52.153  12.668  17.922  0.00  0.00    +0.018 C 
ATOM     28  C   UNL     1      51.920  11.800  20.238  0.00  0.00    +0.013 C 
ATOM     29  C   UNL     1      50.335  13.529  19.415  0.00  0.00    +0.030 C 
ATOM     30  C   UNL     1      49.339  13.876  18.322  0.00  0.00    -0.006 C 
ATOM     31  C   UNL     1      46.541  16.440  19.197  0.00  0.00    -0.015 C 
ATOM     32  C   UNL     1      46.229  17.135  17.856  0.00  0.00    +0.015 C 
ATOM     33  C   UNL     1      45.165  16.238  19.853  0.00  0.00    +0.019 C 
ATOM     34  C   UNL     1      44.464  17.597  19.961  0.00  0.00    +0.016 C 
ATOM     35  O   UNL     1      44.845  21.799  22.207  0.00  0.00    -0.458 OA
ATOM     36  C   UNL     1      45.257  18.565  20.832  0.00  0.00    -0.026 C 
ATOM     37  C   UNL     1      45.089  18.128  22.299  0.00  0.00    +0.021 C 
ENDROOT
BRANCH   4   5
ATOM      5  O   UNL     1      47.594  21.760  20.939  0.00  0.00    -0.540 OA
ATOM      6  H   UNL     1      47.230  21.828  20.046  0.00  0.00    +0.382 HD
ENDBRANCH   4   5
BRANCH  19  20
ATOM     20  C   UNL     1      46.132  11.937  17.359  0.00  0.00    +0.162 C 
BRANCH  20  21
ATOM     21  O   UNL     1      45.422  11.887  16.120  0.00  0.00    -0.572 OA
ATOM     22  H   UNL     1      44.969  11.048  15.959  0.00  0.00    +0.378 HD
ENDBRANCH  20  21
ENDBRANCH  19  20
TORSDOF 3
ENDMDL
MODEL 8
REMARK VINA RESULT:      -5.6      3.051      4.910
REMARK  Name = ZINC95486170
REMARK  12 active torsions:
REMARK  status: ('A' for Active; 'I' for Inactive)
REMARK    1  A    between atoms: C1_1  and  C2_2
REMARK    2  A    between atoms: C4_6  and  O3_40
REMARK    3  A    between atoms: C6_9  and  C32_39
REMARK    4  A    between atoms: C7_10  and  C31_38
REMARK    5  A    between atoms: C10_13  and  C30_37
REMARK    6  A    between atoms: C11_14  and  C29_36
REMARK    7  A    between atoms: C14_17  and  C28_35
REMARK    8  A    between atoms: C15_18  and  C27_34
REMARK    9  A    between atoms: C17_20  and  C26_32
REMARK   10  A    between atoms: C21_27  and  C24_30
REMARK   11  A    between atoms: C21_27  and  C25_31
REMARK   12  A    between atoms: C26_32  and  O2_33
REMARK                            x       y       z     vdW  Elec       q    Type
REMARK                         _______ _______ _______ _____ _____    ______ ____
ROOT
ATOM      1  C   UNL     1      43.363  20.591  19.376  0.00  0.00    +0.040 C 
ATOM      2  C   UNL     1      44.892  20.655  19.548  0.00  0.00    -0.016 C 
ATOM      3  C   UNL     1      45.187  21.423  20.813  0.00  0.00    +0.341 C 
ATOM      4  C   UNL     1      46.423  21.211  21.635  0.00  0.00    +0.140 C 
ATOM      7  C   UNL     1      47.033  19.821  21.495  0.00  0.00    +0.060 C 
ATOM      8  C   UNL     1      46.910  19.305  20.050  0.00  0.00    -0.020 C 
ATOM      9  C   UNL     1      47.591  20.394  19.201  0.00  0.00    +0.026 C 
ATOM     10  C   UNL     1      47.641  17.969  19.902  0.00  0.00    -0.013 C 
ATOM     11  C   UNL     1      47.223  17.106  21.114  0.00  0.00    +0.013 C 
ATOM     12  C   UNL     1      49.158  18.150  20.059  0.00  0.00    +0.014 C 
ATOM     13  C   UNL     1      49.825  16.771  20.085  0.00  0.00    +0.014 C 
ATOM     14  C   UNL     1      49.588  16.038  18.768  0.00  0.00    -0.025 C 
ATOM     15  C   UNL     1      50.363  16.834  17.683  0.00  0.00    +0.010 C 
ATOM     16  C   UNL     1      48.109  15.930  18.420  0.00  0.00    -0.009 C 
ATOM     17  C   UNL     1      47.402  14.866  19.281  0.00  0.00    +0.012 C 
ATOM     18  C   UNL     1      48.015  15.413  16.976  0.00  0.00    +0.027 C 
ATOM     19  C   UNL     1      48.845  14.148  16.744  0.00  0.00    -0.003 C 
ATOM     23  C   UNL     1      49.526  13.608  17.977  0.00  0.00    +0.005 C 
ATOM     24  C   UNL     1      50.595  12.548  17.640  0.00  0.00    +0.002 C 
ATOM     25  C   UNL     1      51.022  11.906  18.962  0.00  0.00    +0.008 C 
ATOM     26  C   UNL     1      51.552  12.914  19.973  0.00  0.00    -0.061 C 
ATOM     27  C   UNL     1      52.954  13.376  19.564  0.00  0.00    +0.018 C 
ATOM     28  C   UNL     1      51.661  12.219  21.343  0.00  0.00    +0.013 C 
ATOM     29  C   UNL     1      50.634  14.132  20.132  0.00  0.00    +0.030 C 
ATOM     30  C   UNL     1      50.271  14.680  18.763  0.00  0.00    -0.006 C 
ATOM     31  C   UNL     1      47.361  17.260  18.581  0.00  0.00    -0.015 C 
ATOM     32  C   UNL     1      47.712  18.146  17.368  0.00  0.00    +0.015 C 
ATOM     33  C   UNL     1      45.840  17.052  18.474  0.00  0.00    +0.019 C 
ATOM     34  C   UNL     1      45.154  18.422  18.437  0.00  0.00    +0.016 C 
ATOM     35  O   UNL     1      44.370  22.256  21.182  0.00  0.00    -0.458 OA
ATOM     36  C   UNL     1      45.427  19.217  19.708  0.00  0.00    -0.026 C 
ATOM     37  C   UNL     1      44.590  18.598  20.842  0.00  0.00    +0.021 C 
ENDROOT
BRANCH   4   5
ATOM      5  O   UNL     1      47.393  22.228  21.367  0.00  0.00    -0.540 OA
ATOM      6  H   UNL     1      47.150  22.823  20.644  0.00  0.00    +0.382 HD
ENDBRANCH   4   5
BRANCH  19  20
ATOM     20  C   UNL     1      47.930  13.076  16.133  0.00  0.00    +0.162 C 
BRANCH  20  21
ATOM     21  O   UNL     1      47.343  13.580  14.932  0.00  0.00    -0.572 OA
ATOM     22  H   UNL     1      46.807  12.932  14.453  0.00  0.00    +0.378 HD
ENDBRANCH  20  21
ENDBRANCH  19  20
TORSDOF 3
ENDMDL
MODEL 9
REMARK VINA RESULT:      -5.5      2.748      4.642
REMARK  Name = ZINC95486170
REMARK  12 active torsions:
REMARK  status: ('A' for Active; 'I' for Inactive)
REMARK    1  A    between atoms: C1_1  and  C2_2
REMARK    2  A    between atoms: C4_6  and  O3_40
REMARK    3  A    between atoms: C6_9  and  C32_39
REMARK    4  A    between atoms: C7_10  and  C31_38
REMARK    5  A    between atoms: C10_13  and  C30_37
REMARK    6  A    between atoms: C11_14  and  C29_36
REMARK    7  A    between atoms: C14_17  and  C28_35
REMARK    8  A    between atoms: C15_18  and  C27_34
REMARK    9  A    between atoms: C17_20  and  C26_32
REMARK   10  A    between atoms: C21_27  and  C24_30
REMARK   11  A    between atoms: C21_27  and  C25_31
REMARK   12  A    between atoms: C26_32  and  O2_33
REMARK                            x       y       z     vdW  Elec       q    Type
REMARK                         _______ _______ _______ _____ _____    ______ ____
ROOT
ATOM      1  C   UNL     1      47.663  21.253  21.264  0.00  0.00    +0.040 C 
ATOM      2  C   UNL     1      46.886  20.051  20.697  0.00  0.00    -0.016 C 
ATOM      3  C   UNL     1      45.745  20.585  19.865  0.00  0.00    +0.341 C 
ATOM      4  C   UNL     1      45.148  19.837  18.710  0.00  0.00    +0.140 C 
ATOM      7  C   UNL     1      46.102  18.848  18.049  0.00  0.00    +0.060 C 
ATOM      8  C   UNL     1      47.003  18.164  19.093  0.00  0.00    -0.020 C 
ATOM      9  C   UNL     1      46.012  17.533  20.089  0.00  0.00    +0.026 C 
ATOM     10  C   UNL     1      47.859  17.086  18.426  0.00  0.00    -0.013 C 
ATOM     11  C   UNL     1      48.438  17.720  17.142  0.00  0.00    +0.013 C 
ATOM     12  C   UNL     1      46.990  15.921  17.926  0.00  0.00    +0.014 C 
ATOM     13  C   UNL     1      47.863  14.962  17.111  0.00  0.00    +0.014 C 
ATOM     14  C   UNL     1      48.962  14.367  17.986  0.00  0.00    -0.025 C 
ATOM     15  C   UNL     1      48.247  13.465  19.029  0.00  0.00    +0.010 C 
ATOM     16  C   UNL     1      49.805  15.436  18.669  0.00  0.00    -0.009 C 
ATOM     17  C   UNL     1      50.782  16.101  17.681  0.00  0.00    +0.012 C 
ATOM     18  C   UNL     1      50.693  14.726  19.704  0.00  0.00    +0.027 C 
ATOM     19  C   UNL     1      51.469  13.547  19.110  0.00  0.00    -0.003 C 
ATOM     23  C   UNL     1      51.282  13.355  17.626  0.00  0.00    +0.005 C 
ATOM     24  C   UNL     1      51.807  11.988  17.140  0.00  0.00    +0.002 C 
ATOM     25  C   UNL     1      51.794  12.020  15.610  0.00  0.00    +0.008 C 
ATOM     26  C   UNL     1      50.417  12.314  15.031  0.00  0.00    -0.061 C 
ATOM     27  C   UNL     1      49.519  11.080  15.168  0.00  0.00    +0.018 C 
ATOM     28  C   UNL     1      50.575  12.620  13.530  0.00  0.00    +0.013 C 
ATOM     29  C   UNL     1      49.740  13.520  15.691  0.00  0.00    +0.030 C 
ATOM     30  C   UNL     1      49.819  13.385  17.202  0.00  0.00    -0.006 C 
ATOM     31  C   UNL     1      48.958  16.532  19.327  0.00  0.00    -0.015 C 
ATOM     32  C   UNL     1      48.389  15.960  20.642  0.00  0.00    +0.015 C 
ATOM     33  C   UNL     1      49.837  17.713  19.773  0.00  0.00    +0.019 C 
ATOM     34  C   UNL     1      48.984  18.681  20.600  0.00  0.00    +0.016 C 
ATOM     35  O   UNL     1      45.293  21.685  20.150  0.00  0.00    -0.458 OA
ATOM     36  C   UNL     1      47.829  19.245  19.781  0.00  0.00    -0.026 C 
ATOM     37  C   UNL     1      48.407  20.273  18.791  0.00  0.00    +0.021 C 
ENDROOT
BRANCH   4   5
ATOM      5  O   UNL     1      43.928  19.196  19.095  0.00  0.00    -0.540 OA
ATOM      6  H   UNL     1      43.328  19.018  18.359  0.00  0.00    +0.382 HD
ENDBRANCH   4   5
BRANCH  19  20
ATOM     20  C   UNL     1      52.958  13.738  19.435  0.00  0.00    +0.162 C 
BRANCH  20  21
ATOM     21  O   UNL     1      53.166  15.049  19.964  0.00  0.00    -0.572 OA
ATOM     22  H   UNL     1      53.818  15.572  19.477  0.00  0.00    +0.378 HD
ENDBRANCH  20  21
ENDBRANCH  19  20
TORSDOF 3
ENDMDL
