MODEL 1
REMARK VINA RESULT:      -6.1      0.000      0.000
REMARK  Name = ZINC95486324
REMARK  6 active torsions:
REMARK  status: ('A' for Active; 'I' for Inactive)
REMARK    1  A    between atoms: C1_1  and  C2_2
REMARK    2  A    between atoms: C3_3  and  O7_28
REMARK    3  A    between atoms: C5_6  and  C7_9
REMARK    4  A    between atoms: C8_10  and  O6_27
REMARK    5  A    between atoms: C12_14  and  O3_15
REMARK    6  A    between atoms: C15_19  and  C16_21
REMARK                            x       y       z     vdW  Elec       q    Type
REMARK                         _______ _______ _______ _____ _____    ______ ____
ROOT
ATOM      8  C   UNL     1      48.376  18.111  18.729  0.00  0.00    -0.113 A 
ATOM      9  C   UNL     1      47.638  17.615  17.646  0.00  0.00    +0.209 A 
ATOM     12  C   UNL     1      46.321  17.999  17.457  0.00  0.00    -0.023 A 
ATOM     13  C   UNL     1      45.719  18.881  18.341  0.00  0.00    +0.189 A 
ATOM     14  C   UNL     1      46.452  19.384  19.431  0.00  0.00    -0.263 A 
ATOM     15  C   UNL     1      45.787  20.320  20.354  0.00  0.00    +0.424 A 
ATOM     16  C   UNL     1      44.439  20.656  20.081  0.00  0.00    -0.146 A 
ATOM     17  C   UNL     1      43.819  20.114  18.999  0.00  0.00    +0.208 A 
ATOM     24  O   UNL     1      46.375  20.787  21.316  0.00  0.00    -0.452 OA
ATOM     25  O   UNL     1      44.435  19.263  18.166  0.00  0.00    -0.217 OA
ATOM     26  C   UNL     1      47.781  18.993  19.629  0.00  0.00    +0.238 A 
ENDROOT
BRANCH   8   7
ATOM      1  C   UNL     1      53.797  16.386  19.543  0.00  0.00    +0.182 C 
ATOM      2  C   UNL     1      52.396  16.884  19.299  0.00  0.00    +0.076 A 
ATOM      3  C   UNL     1      52.214  18.012  18.577  0.00  0.00    -0.052 A 
ATOM      6  C   UNL     1      50.890  18.477  18.349  0.00  0.00    +0.387 A 
ATOM      7  C   UNL     1      49.786  17.692  18.920  0.00  0.00    -0.225 A 
ATOM     29  C   UNL     1      50.092  16.572  19.631  0.00  0.00    +0.336 A 
ATOM     30  O   UNL     1      50.678  19.491  17.703  0.00  0.00    -0.478 OA
ATOM     31  O   UNL     1      51.364  16.195  19.798  0.00  0.00    -0.191 OA
BRANCH   3   4
ATOM      4  O   UNL     1      53.282  18.691  18.076  0.00  0.00    -0.455 OA
ATOM      5  H   UNL     1      53.160  19.651  18.050  0.00  0.00    +0.409 HD
ENDBRANCH   3   4
ENDBRANCH   8   7
BRANCH  17  18
ATOM     18  C   UNL     1      42.412  20.477  18.732  0.00  0.00    -0.075 A 
ATOM     19  C   UNL     1      41.510  19.507  18.291  0.00  0.00    +0.056 A 
ATOM     20  C   UNL     1      40.198  19.853  18.042  0.00  0.00    +0.014 A 
ATOM     21  C   UNL     1      39.775  21.158  18.230  0.00  0.00    +0.038 A 
ATOM     22  C   UNL     1      40.664  22.123  18.667  0.00  0.00    +0.010 A 
ATOM     23  C   UNL     1      41.978  21.790  18.924  0.00  0.00    +0.056 A 
ENDBRANCH  17  18
BRANCH   9  10
ATOM     10  O   UNL     1      48.219  16.752  16.774  0.00  0.00    -0.479 OA
ATOM     11  H   UNL     1      47.599  16.337  16.159  0.00  0.00    +0.401 HD
ENDBRANCH   9  10
BRANCH  26  27
ATOM     27  O   UNL     1      48.487  19.475  20.683  0.00  0.00    -0.469 OA
ATOM     28  H   UNL     1      49.075  20.208  20.461  0.00  0.00    +0.404 HD
ENDBRANCH  26  27
TORSDOF 5
ENDMDL
MODEL 2
REMARK VINA RESULT:      -6.1      6.393      8.266
REMARK  Name = ZINC95486324
REMARK  6 active torsions:
REMARK  status: ('A' for Active; 'I' for Inactive)
REMARK    1  A    between atoms: C1_1  and  C2_2
REMARK    2  A    between atoms: C3_3  and  O7_28
REMARK    3  A    between atoms: C5_6  and  C7_9
REMARK    4  A    between atoms: C8_10  and  O6_27
REMARK    5  A    between atoms: C12_14  and  O3_15
REMARK    6  A    between atoms: C15_19  and  C16_21
REMARK                            x       y       z     vdW  Elec       q    Type
REMARK                         _______ _______ _______ _____ _____    ______ ____
ROOT
ATOM      8  C   UNL     1      49.638  12.566  14.660  0.00  0.00    -0.113 A 
ATOM      9  C   UNL     1      50.264  13.553  15.433  0.00  0.00    +0.209 A 
ATOM     12  C   UNL     1      49.627  14.090  16.539  0.00  0.00    -0.023 A 
ATOM     13  C   UNL     1      48.360  13.652  16.893  0.00  0.00    +0.189 A 
ATOM     14  C   UNL     1      47.724  12.662  16.124  0.00  0.00    -0.263 A 
ATOM     15  C   UNL     1      46.378  12.217  16.524  0.00  0.00    +0.424 A 
ATOM     16  C   UNL     1      45.806  12.821  17.669  0.00  0.00    -0.146 A 
ATOM     17  C   UNL     1      46.504  13.771  18.345  0.00  0.00    +0.208 A 
ATOM     24  O   UNL     1      45.780  11.360  15.892  0.00  0.00    -0.452 OA
ATOM     25  O   UNL     1      47.730  14.168  17.971  0.00  0.00    -0.217 OA
ATOM     26  C   UNL     1      48.362  12.122  15.001  0.00  0.00    +0.238 A 
ENDROOT
BRANCH   8   7
ATOM      1  C   UNL     1      52.371  10.277  10.153  0.00  0.00    +0.182 C 
ATOM      2  C   UNL     1      51.634  10.919  11.300  0.00  0.00    +0.076 A 
ATOM      3  C   UNL     1      50.911  12.038  11.074  0.00  0.00    -0.052 A 
ATOM      6  C   UNL     1      50.218  12.640  12.158  0.00  0.00    +0.387 A 
ATOM      7  C   UNL     1      50.331  12.000  13.477  0.00  0.00    -0.225 A 
ATOM     29  C   UNL     1      51.089  10.873  13.583  0.00  0.00    +0.336 A 
ATOM     30  O   UNL     1      49.552  13.652  12.001  0.00  0.00    -0.478 OA
ATOM     31  O   UNL     1      51.708  10.363  12.514  0.00  0.00    -0.191 OA
BRANCH   3   4
ATOM      4  O   UNL     1      50.849  12.580   9.826  0.00  0.00    -0.455 OA
ATOM      5  H   UNL     1      51.419  12.142   9.179  0.00  0.00    +0.409 HD
ENDBRANCH   3   4
ENDBRANCH   8   7
BRANCH  17  18
ATOM     18  C   UNL     1      45.890  14.389  19.537  0.00  0.00    -0.075 A 
ATOM     19  C   UNL     1      45.482  15.724  19.503  0.00  0.00    +0.056 A 
ATOM     20  C   UNL     1      44.909  16.295  20.621  0.00  0.00    +0.014 A 
ATOM     21  C   UNL     1      44.740  15.549  21.774  0.00  0.00    +0.038 A 
ATOM     22  C   UNL     1      45.142  14.226  21.814  0.00  0.00    +0.010 A 
ATOM     23  C   UNL     1      45.712  13.641  20.702  0.00  0.00    +0.056 A 
ENDBRANCH  17  18
BRANCH   9  10
ATOM     10  O   UNL     1      51.505  13.987  15.095  0.00  0.00    -0.479 OA
ATOM     11  H   UNL     1      51.514  14.845  14.647  0.00  0.00    +0.401 HD
ENDBRANCH   9  10
BRANCH  26  27
ATOM     27  O   UNL     1      47.747  11.170  14.255  0.00  0.00    -0.469 OA
ATOM     28  H   UNL     1      47.941  10.266  14.533  0.00  0.00    +0.404 HD
ENDBRANCH  26  27
TORSDOF 5
ENDMDL
MODEL 3
REMARK VINA RESULT:      -6.0      3.408      4.567
REMARK  Name = ZINC95486324
REMARK  6 active torsions:
REMARK  status: ('A' for Active; 'I' for Inactive)
REMARK    1  A    between atoms: C1_1  and  C2_2
REMARK    2  A    between atoms: C3_3  and  O7_28
REMARK    3  A    between atoms: C5_6  and  C7_9
REMARK    4  A    between atoms: C8_10  and  O6_27
REMARK    5  A    between atoms: C12_14  and  O3_15
REMARK    6  A    between atoms: C15_19  and  C16_21
REMARK                            x       y       z     vdW  Elec       q    Type
REMARK                         _______ _______ _______ _____ _____    ______ ____
ROOT
ATOM      8  C   UNL     1      46.856  15.263  18.543  0.00  0.00    -0.113 A 
ATOM      9  C   UNL     1      47.081  16.166  17.495  0.00  0.00    +0.209 A 
ATOM     12  C   UNL     1      46.422  17.382  17.460  0.00  0.00    -0.023 A 
ATOM     13  C   UNL     1      45.529  17.720  18.466  0.00  0.00    +0.189 A 
ATOM     14  C   UNL     1      45.297  16.821  19.522  0.00  0.00    -0.263 A 
ATOM     15  C   UNL     1      44.343  17.206  20.576  0.00  0.00    +0.424 A 
ATOM     16  C   UNL     1      43.717  18.471  20.457  0.00  0.00    -0.146 A 
ATOM     17  C   UNL     1      44.011  19.267  19.396  0.00  0.00    +0.208 A 
ATOM     24  O   UNL     1      44.103  16.465  21.516  0.00  0.00    -0.452 OA
ATOM     25  O   UNL     1      44.881  18.905  18.442  0.00  0.00    -0.217 OA
ATOM     26  C   UNL     1      45.956  15.587  19.557  0.00  0.00    +0.238 A 
ENDROOT
BRANCH   8   7
ATOM      1  C   UNL     1      49.717  10.282  18.705  0.00  0.00    +0.182 C 
ATOM      2  C   UNL     1      48.923  11.561  18.634  0.00  0.00    +0.076 A 
ATOM      3  C   UNL     1      47.713  11.553  18.033  0.00  0.00    -0.052 A 
ATOM      6  C   UNL     1      46.968  12.762  17.969  0.00  0.00    +0.387 A 
ATOM      7  C   UNL     1      47.568  13.963  18.569  0.00  0.00    -0.225 A 
ATOM     29  C   UNL     1      48.796  13.849  19.148  0.00  0.00    +0.336 A 
ATOM     30  O   UNL     1      45.870  12.802  17.437  0.00  0.00    -0.478 OA
ATOM     31  O   UNL     1      49.433  12.674  19.173  0.00  0.00    -0.191 OA
BRANCH   3   4
ATOM      4  O   UNL     1      47.216  10.404  17.498  0.00  0.00    -0.455 OA
ATOM      5  H   UNL     1      47.494   9.602  17.961  0.00  0.00    +0.409 HD
ENDBRANCH   3   4
ENDBRANCH   8   7
BRANCH  17  18
ATOM     18  C   UNL     1      43.347  20.582  19.290  0.00  0.00    -0.075 A 
ATOM     19  C   UNL     1      44.043  21.748  19.614  0.00  0.00    +0.056 A 
ATOM     20  C   UNL     1      43.416  22.973  19.513  0.00  0.00    +0.014 A 
ATOM     21  C   UNL     1      42.100  23.047  19.092  0.00  0.00    +0.038 A 
ATOM     22  C   UNL     1      41.404  21.896  18.770  0.00  0.00    +0.010 A 
ATOM     23  C   UNL     1      42.020  20.665  18.862  0.00  0.00    +0.056 A 
ENDBRANCH  17  18
BRANCH   9  10
ATOM     10  O   UNL     1      47.954  15.845  16.506  0.00  0.00    -0.479 OA
ATOM     11  H   UNL     1      48.272  14.932  16.543  0.00  0.00    +0.401 HD
ENDBRANCH   9  10
BRANCH  26  27
ATOM     27  O   UNL     1      45.728  14.717  20.573  0.00  0.00    -0.469 OA
ATOM     28  H   UNL     1      44.828  14.367  20.596  0.00  0.00    +0.404 HD
ENDBRANCH  26  27
TORSDOF 5
ENDMDL
MODEL 4
REMARK VINA RESULT:      -5.9      3.661      5.421
REMARK  Name = ZINC95486324
REMARK  6 active torsions:
REMARK  status: ('A' for Active; 'I' for Inactive)
REMARK    1  A    between atoms: C1_1  and  C2_2
REMARK    2  A    between atoms: C3_3  and  O7_28
REMARK    3  A    between atoms: C5_6  and  C7_9
REMARK    4  A    between atoms: C8_10  and  O6_27
REMARK    5  A    between atoms: C12_14  and  O3_15
REMARK    6  A    between atoms: C15_19  and  C16_21
REMARK                            x       y       z     vdW  Elec       q    Type
REMARK                         _______ _______ _______ _____ _____    ______ ____
ROOT
ATOM      8  C   UNL     1      50.293  14.805  16.779  0.00  0.00    -0.113 A 
ATOM      9  C   UNL     1      50.897  16.061  16.924  0.00  0.00    +0.209 A 
ATOM     12  C   UNL     1      50.147  17.163  17.299  0.00  0.00    -0.023 A 
ATOM     13  C   UNL     1      48.787  17.033  17.537  0.00  0.00    +0.189 A 
ATOM     14  C   UNL     1      48.173  15.776  17.394  0.00  0.00    -0.263 A 
ATOM     15  C   UNL     1      46.727  15.666  17.653  0.00  0.00    +0.424 A 
ATOM     16  C   UNL     1      46.043  16.846  18.033  0.00  0.00    -0.146 A 
ATOM     17  C   UNL     1      46.730  18.014  18.143  0.00  0.00    +0.208 A 
ATOM     24  O   UNL     1      46.142  14.601  17.545  0.00  0.00    -0.452 OA
ATOM     25  O   UNL     1      48.047  18.101  17.905  0.00  0.00    -0.217 OA
ATOM     26  C   UNL     1      48.926  14.661  17.008  0.00  0.00    +0.238 A 
ENDROOT
BRANCH   8   7
ATOM      1  C   UNL     1      53.421  10.289  15.092  0.00  0.00    +0.182 C 
ATOM      2  C   UNL     1      52.611  11.458  15.590  0.00  0.00    +0.076 A 
ATOM      3  C   UNL     1      52.493  11.658  16.921  0.00  0.00    -0.052 A 
ATOM      6  C   UNL     1      51.729  12.763  17.386  0.00  0.00    +0.387 A 
ATOM      7  C   UNL     1      51.106  13.632  16.376  0.00  0.00    -0.225 A 
ATOM     29  C   UNL     1      51.296  13.331  15.062  0.00  0.00    +0.336 A 
ATOM     30  O   UNL     1      51.594  12.983  18.579  0.00  0.00    -0.478 OA
ATOM     31  O   UNL     1      52.034  12.275  14.702  0.00  0.00    -0.191 OA
BRANCH   3   4
ATOM      4  O   UNL     1      53.096  10.814  17.803  0.00  0.00    -0.455 OA
ATOM      5  H   UNL     1      53.815  10.294  17.419  0.00  0.00    +0.409 HD
ENDBRANCH   3   4
ENDBRANCH   8   7
BRANCH  17  18
ATOM     18  C   UNL     1      45.998  19.234  18.540  0.00  0.00    -0.075 A 
ATOM     19  C   UNL     1      46.692  20.421  18.777  0.00  0.00    +0.056 A 
ATOM     20  C   UNL     1      46.001  21.557  19.148  0.00  0.00    +0.014 A 
ATOM     21  C   UNL     1      44.625  21.520  19.285  0.00  0.00    +0.038 A 
ATOM     22  C   UNL     1      43.931  20.347  19.051  0.00  0.00    +0.010 A 
ATOM     23  C   UNL     1      44.608  19.205  18.675  0.00  0.00    +0.056 A 
ENDBRANCH  17  18
BRANCH   9  10
ATOM     10  O   UNL     1      52.227  16.199  16.694  0.00  0.00    -0.479 OA
ATOM     11  H   UNL     1      52.717  16.580  17.436  0.00  0.00    +0.401 HD
ENDBRANCH   9  10
BRANCH  26  27
ATOM     27  O   UNL     1      48.332  13.449  16.866  0.00  0.00    -0.469 OA
ATOM     28  H   UNL     1      48.896  12.780  16.455  0.00  0.00    +0.404 HD
ENDBRANCH  26  27
TORSDOF 5
ENDMDL
MODEL 5
REMARK VINA RESULT:      -5.9      2.201      8.884
REMARK  Name = ZINC95486324
REMARK  6 active torsions:
REMARK  status: ('A' for Active; 'I' for Inactive)
REMARK    1  A    between atoms: C1_1  and  C2_2
REMARK    2  A    between atoms: C3_3  and  O7_28
REMARK    3  A    between atoms: C5_6  and  C7_9
REMARK    4  A    between atoms: C8_10  and  O6_27
REMARK    5  A    between atoms: C12_14  and  O3_15
REMARK    6  A    between atoms: C15_19  and  C16_21
REMARK                            x       y       z     vdW  Elec       q    Type
REMARK                         _______ _______ _______ _____ _____    ______ ____
ROOT
ATOM      8  C   UNL     1      44.562  19.784  20.239  0.00  0.00    -0.113 A 
ATOM      9  C   UNL     1      44.927  19.984  21.577  0.00  0.00    +0.209 A 
ATOM     12  C   UNL     1      46.175  19.594  22.032  0.00  0.00    -0.023 A 
ATOM     13  C   UNL     1      47.079  19.000  21.164  0.00  0.00    +0.189 A 
ATOM     14  C   UNL     1      46.722  18.796  19.819  0.00  0.00    -0.263 A 
ATOM     15  C   UNL     1      47.702  18.164  18.920  0.00  0.00    +0.424 A 
ATOM     16  C   UNL     1      48.953  17.799  19.473  0.00  0.00    -0.146 A 
ATOM     17  C   UNL     1      49.200  18.040  20.788  0.00  0.00    +0.208 A 
ATOM     24  O   UNL     1      47.445  17.963  17.743  0.00  0.00    -0.452 OA
ATOM     25  O   UNL     1      48.299  18.617  21.597  0.00  0.00    -0.217 OA
ATOM     26  C   UNL     1      45.458  19.183  19.357  0.00  0.00    +0.238 A 
ENDROOT
BRANCH   8   7
ATOM      1  C   UNL     1      39.324  21.299  18.425  0.00  0.00    +0.182 C 
ATOM      2  C   UNL     1      40.717  20.955  18.887  0.00  0.00    +0.076 A 
ATOM      3  C   UNL     1      41.688  21.891  18.804  0.00  0.00    -0.052 A 
ATOM      6  C   UNL     1      43.000  21.562  19.241  0.00  0.00    +0.387 A 
ATOM      7  C   UNL     1      43.222  20.206  19.764  0.00  0.00    -0.225 A 
ATOM     29  C   UNL     1      42.166  19.348  19.798  0.00  0.00    +0.336 A 
ATOM     30  O   UNL     1      43.908  22.376  19.186  0.00  0.00    -0.478 OA
ATOM     31  O   UNL     1      40.958  19.733  19.373  0.00  0.00    -0.191 OA
BRANCH   3   4
ATOM      4  O   UNL     1      41.413  23.130  18.309  0.00  0.00    -0.455 OA
ATOM      5  H   UNL     1      41.998  23.403  17.588  0.00  0.00    +0.409 HD
ENDBRANCH   3   4
ENDBRANCH   8   7
BRANCH  17  18
ATOM     18  C   UNL     1      50.511  17.652  21.346  0.00  0.00    -0.075 A 
ATOM     19  C   UNL     1      51.492  18.620  21.570  0.00  0.00    +0.056 A 
ATOM     20  C   UNL     1      52.715  18.250  22.092  0.00  0.00    +0.014 A 
ATOM     21  C   UNL     1      52.969  16.923  22.393  0.00  0.00    +0.038 A 
ATOM     22  C   UNL     1      52.002  15.960  22.173  0.00  0.00    +0.010 A 
ATOM     23  C   UNL     1      50.773  16.316  21.657  0.00  0.00    +0.056 A 
ENDBRANCH  17  18
BRANCH   9  10
ATOM     10  O   UNL     1      44.049  20.565  22.435  0.00  0.00    -0.479 OA
ATOM     11  H   UNL     1      44.342  20.565  23.357  0.00  0.00    +0.401 HD
ENDBRANCH   9  10
BRANCH  26  27
ATOM     27  O   UNL     1      45.112  18.981  18.061  0.00  0.00    -0.469 OA
ATOM     28  H   UNL     1      44.234  19.314  17.832  0.00  0.00    +0.404 HD
ENDBRANCH  26  27
TORSDOF 5
ENDMDL
MODEL 6
REMARK VINA RESULT:      -5.9      4.166      5.369
REMARK  Name = ZINC95486324
REMARK  6 active torsions:
REMARK  status: ('A' for Active; 'I' for Inactive)
REMARK    1  A    between atoms: C1_1  and  C2_2
REMARK    2  A    between atoms: C3_3  and  O7_28
REMARK    3  A    between atoms: C5_6  and  C7_9
REMARK    4  A    between atoms: C8_10  and  O6_27
REMARK    5  A    between atoms: C12_14  and  O3_15
REMARK    6  A    between atoms: C15_19  and  C16_21
REMARK                            x       y       z     vdW  Elec       q    Type
REMARK                         _______ _______ _______ _____ _____    ______ ____
ROOT
ATOM      8  C   UNL     1      49.119  13.675  16.859  0.00  0.00    -0.113 A 
ATOM      9  C   UNL     1      47.862  13.132  17.158  0.00  0.00    +0.209 A 
ATOM     12  C   UNL     1      46.843  13.938  17.636  0.00  0.00    -0.023 A 
ATOM     13  C   UNL     1      47.057  15.295  17.823  0.00  0.00    +0.189 A 
ATOM     14  C   UNL     1      48.315  15.849  17.526  0.00  0.00    -0.263 A 
ATOM     15  C   UNL     1      48.515  17.293  17.735  0.00  0.00    +0.424 A 
ATOM     16  C   UNL     1      47.415  18.038  18.226  0.00  0.00    -0.146 A 
ATOM     17  C   UNL     1      46.239  17.407  18.482  0.00  0.00    +0.208 A 
ATOM     24  O   UNL     1      49.586  17.827  17.493  0.00  0.00    -0.452 OA
ATOM     25  O   UNL     1      46.070  16.090  18.288  0.00  0.00    -0.217 OA
ATOM     26  C   UNL     1      49.350  15.036  17.049  0.00  0.00    +0.238 A 
ENDROOT
BRANCH   8   7
ATOM      1  C   UNL     1      53.364  10.277  15.001  0.00  0.00    +0.182 C 
ATOM      2  C   UNL     1      52.233  11.174  15.433  0.00  0.00    +0.076 A 
ATOM      3  C   UNL     1      51.387  11.663  14.499  0.00  0.00    -0.052 A 
ATOM      6  C   UNL     1      50.321  12.508  14.912  0.00  0.00    +0.387 A 
ATOM      7  C   UNL     1      50.203  12.801  16.348  0.00  0.00    -0.225 A 
ATOM     29  C   UNL     1      51.116  12.251  17.195  0.00  0.00    +0.336 A 
ATOM     30  O   UNL     1      49.532  12.972  14.104  0.00  0.00    -0.478 OA
ATOM     31  O   UNL     1      52.089  11.460  16.731  0.00  0.00    -0.191 OA
BRANCH   3   4
ATOM      4  O   UNL     1      51.554  11.351  13.185  0.00  0.00    -0.455 OA
ATOM      5  H   UNL     1      50.822  11.633  12.618  0.00  0.00    +0.409 HD
ENDBRANCH   3   4
ENDBRANCH   8   7
BRANCH  17  18
ATOM     18  C   UNL     1      45.104  18.201  18.994  0.00  0.00    -0.075 A 
ATOM     19  C   UNL     1      44.376  17.752  20.097  0.00  0.00    +0.056 A 
ATOM     20  C   UNL     1      43.317  18.499  20.570  0.00  0.00    +0.014 A 
ATOM     21  C   UNL     1      42.976  19.691  19.954  0.00  0.00    +0.038 A 
ATOM     22  C   UNL     1      43.694  20.141  18.861  0.00  0.00    +0.010 A 
ATOM     23  C   UNL     1      44.759  19.406  18.381  0.00  0.00    +0.056 A 
ENDBRANCH  17  18
BRANCH   9  10
ATOM     10  O   UNL     1      47.642  11.805  16.976  0.00  0.00    -0.479 OA
ATOM     11  H   UNL     1      46.742  11.522  17.192  0.00  0.00    +0.401 HD
ENDBRANCH   9  10
BRANCH  26  27
ATOM     27  O   UNL     1      50.566  15.569  16.767  0.00  0.00    -0.469 OA
ATOM     28  H   UNL     1      50.961  16.058  17.501  0.00  0.00    +0.404 HD
ENDBRANCH  26  27
TORSDOF 5
ENDMDL
MODEL 7
REMARK VINA RESULT:      -5.9      3.717      5.278
REMARK  Name = ZINC95486324
REMARK  6 active torsions:
REMARK  status: ('A' for Active; 'I' for Inactive)
REMARK    1  A    between atoms: C1_1  and  C2_2
REMARK    2  A    between atoms: C3_3  and  O7_28
REMARK    3  A    between atoms: C5_6  and  C7_9
REMARK    4  A    between atoms: C8_10  and  O6_27
REMARK    5  A    between atoms: C12_14  and  O3_15
REMARK    6  A    between atoms: C15_19  and  C16_21
REMARK                            x       y       z     vdW  Elec       q    Type
REMARK                         _______ _______ _______ _____ _____    ______ ____
ROOT
ATOM      8  C   UNL     1      50.203  14.841  16.932  0.00  0.00    -0.113 A 
ATOM      9  C   UNL     1      50.759  16.127  16.907  0.00  0.00    +0.209 A 
ATOM     12  C   UNL     1      49.991  17.232  17.233  0.00  0.00    -0.023 A 
ATOM     13  C   UNL     1      48.660  17.075  17.589  0.00  0.00    +0.189 A 
ATOM     14  C   UNL     1      48.094  15.788  17.618  0.00  0.00    -0.263 A 
ATOM     15  C   UNL     1      46.678  15.651  18.000  0.00  0.00    +0.424 A 
ATOM     16  C   UNL     1      45.972  16.836  18.318  0.00  0.00    -0.146 A 
ATOM     17  C   UNL     1      46.612  18.034  18.260  0.00  0.00    +0.208 A 
ATOM     24  O   UNL     1      46.135  14.558  18.041  0.00  0.00    -0.452 OA
ATOM     25  O   UNL     1      47.903  18.146  17.911  0.00  0.00    -0.217 OA
ATOM     26  C   UNL     1      48.865  14.669  17.282  0.00  0.00    +0.238 A 
ENDROOT
BRANCH   8   7
ATOM      1  C   UNL     1      53.474  10.282  15.692  0.00  0.00    +0.182 C 
ATOM      2  C   UNL     1      52.599  11.479  15.961  0.00  0.00    +0.076 A 
ATOM      3  C   UNL     1      51.875  12.006  14.950  0.00  0.00    -0.052 A 
ATOM      6  C   UNL     1      51.051  13.134  15.209  0.00  0.00    +0.387 A 
ATOM      7  C   UNL     1      51.036  13.665  16.580  0.00  0.00    -0.225 A 
ATOM     29  C   UNL     1      51.808  13.050  17.517  0.00  0.00    +0.336 A 
ATOM     30  O   UNL     1      50.379  13.644  14.326  0.00  0.00    -0.478 OA
ATOM     31  O   UNL     1      52.555  11.987  17.198  0.00  0.00    -0.191 OA
BRANCH   3   4
ATOM      4  O   UNL     1      51.935  11.464  13.702  0.00  0.00    -0.455 OA
ATOM      5  H   UNL     1      51.746  12.093  12.992  0.00  0.00    +0.409 HD
ENDBRANCH   3   4
ENDBRANCH   8   7
BRANCH  17  18
ATOM     18  C   UNL     1      45.858  19.259  18.595  0.00  0.00    -0.075 A 
ATOM     19  C   UNL     1      46.534  20.462  18.808  0.00  0.00    +0.056 A 
ATOM     20  C   UNL     1      45.823  21.602  19.121  0.00  0.00    +0.014 A 
ATOM     21  C   UNL     1      44.444  21.555  19.224  0.00  0.00    +0.038 A 
ATOM     22  C   UNL     1      43.768  20.367  19.014  0.00  0.00    +0.010 A 
ATOM     23  C   UNL     1      44.466  19.219  18.696  0.00  0.00    +0.056 A 
ENDBRANCH  17  18
BRANCH   9  10
ATOM     10  O   UNL     1      52.061  16.291  16.560  0.00  0.00    -0.479 OA
ATOM     11  H   UNL     1      52.503  17.016  17.023  0.00  0.00    +0.401 HD
ENDBRANCH   9  10
BRANCH  26  27
ATOM     27  O   UNL     1      48.318  13.428  17.304  0.00  0.00    -0.469 OA
ATOM     28  H   UNL     1      48.728  12.805  16.690  0.00  0.00    +0.404 HD
ENDBRANCH  26  27
TORSDOF 5
ENDMDL
MODEL 8
REMARK VINA RESULT:      -5.8      4.574      5.696
REMARK  Name = ZINC95486324
REMARK  6 active torsions:
REMARK  status: ('A' for Active; 'I' for Inactive)
REMARK    1  A    between atoms: C1_1  and  C2_2
REMARK    2  A    between atoms: C3_3  and  O7_28
REMARK    3  A    between atoms: C5_6  and  C7_9
REMARK    4  A    between atoms: C8_10  and  O6_27
REMARK    5  A    between atoms: C12_14  and  O3_15
REMARK    6  A    between atoms: C15_19  and  C16_21
REMARK                            x       y       z     vdW  Elec       q    Type
REMARK                         _______ _______ _______ _____ _____    ______ ____
ROOT
ATOM      8  C   UNL     1      48.351  13.249  17.187  0.00  0.00    -0.113 A 
ATOM      9  C   UNL     1      47.231  12.588  17.710  0.00  0.00    +0.209 A 
ATOM     12  C   UNL     1      46.269  13.287  18.418  0.00  0.00    -0.023 A 
ATOM     13  C   UNL     1      46.405  14.653  18.617  0.00  0.00    +0.189 A 
ATOM     14  C   UNL     1      47.525  15.324  18.095  0.00  0.00    -0.263 A 
ATOM     15  C   UNL     1      47.643  16.775  18.321  0.00  0.00    +0.424 A 
ATOM     16  C   UNL     1      46.610  17.406  19.056  0.00  0.00    -0.146 A 
ATOM     17  C   UNL     1      45.568  16.666  19.518  0.00  0.00    +0.208 A 
ATOM     24  O   UNL     1      48.594  17.408  17.892  0.00  0.00    -0.452 OA
ATOM     25  O   UNL     1      45.471  15.345  19.305  0.00  0.00    -0.217 OA
ATOM     26  C   UNL     1      48.504  14.620  17.385  0.00  0.00    +0.238 A 
ENDROOT
BRANCH   8   7
ATOM      1  C   UNL     1      52.382  10.278  14.368  0.00  0.00    +0.182 C 
ATOM      2  C   UNL     1      51.299  11.069  15.056  0.00  0.00    +0.076 A 
ATOM      3  C   UNL     1      50.322  11.633  14.313  0.00  0.00    -0.052 A 
ATOM      6  C   UNL     1      49.303  12.377  14.966  0.00  0.00    +0.387 A 
ATOM      7  C   UNL     1      49.375  12.489  16.430  0.00  0.00    -0.225 A 
ATOM     29  C   UNL     1      50.408  11.877  17.073  0.00  0.00    +0.336 A 
ATOM     30  O   UNL     1      48.400  12.904  14.335  0.00  0.00    -0.478 OA
ATOM     31  O   UNL     1      51.328  11.189  16.388  0.00  0.00    -0.191 OA
BRANCH   3   4
ATOM      4  O   UNL     1      50.315  11.490  12.959  0.00  0.00    -0.455 OA
ATOM      5  H   UNL     1      50.998  12.004  12.506  0.00  0.00    +0.409 HD
ENDBRANCH   3   4
ENDBRANCH   8   7
BRANCH  17  18
ATOM     18  C   UNL     1      44.501  17.343  20.282  0.00  0.00    -0.075 A 
ATOM     19  C   UNL     1      44.005  16.767  21.454  0.00  0.00    +0.056 A 
ATOM     20  C   UNL     1      43.008  17.405  22.163  0.00  0.00    +0.014 A 
ATOM     21  C   UNL     1      42.499  18.611  21.715  0.00  0.00    +0.038 A 
ATOM     22  C   UNL     1      42.985  19.186  20.555  0.00  0.00    +0.010 A 
ATOM     23  C   UNL     1      43.986  18.562  19.838  0.00  0.00    +0.056 A 
ENDBRANCH  17  18
BRANCH   9  10
ATOM     10  O   UNL     1      47.088  11.252  17.520  0.00  0.00    -0.479 OA
ATOM     11  H   UNL     1      47.583  10.710  18.150  0.00  0.00    +0.401 HD
ENDBRANCH   9  10
BRANCH  26  27
ATOM     27  O   UNL     1      49.587  15.267  16.886  0.00  0.00    -0.469 OA
ATOM     28  H   UNL     1      49.390  16.138  16.518  0.00  0.00    +0.404 HD
ENDBRANCH  26  27
TORSDOF 5
ENDMDL
MODEL 9
REMARK VINA RESULT:      -5.7      1.644      8.796
REMARK  Name = ZINC95486324
REMARK  6 active torsions:
REMARK  status: ('A' for Active; 'I' for Inactive)
REMARK    1  A    between atoms: C1_1  and  C2_2
REMARK    2  A    between atoms: C3_3  and  O7_28
REMARK    3  A    between atoms: C5_6  and  C7_9
REMARK    4  A    between atoms: C8_10  and  O6_27
REMARK    5  A    between atoms: C12_14  and  O3_15
REMARK    6  A    between atoms: C15_19  and  C16_21
REMARK                            x       y       z     vdW  Elec       q    Type
REMARK                         _______ _______ _______ _____ _____    ______ ____
ROOT
ATOM      8  C   UNL     1      45.579  19.193  19.933  0.00  0.00    -0.113 A 
ATOM      9  C   UNL     1      46.168  19.284  21.202  0.00  0.00    +0.209 A 
ATOM     12  C   UNL     1      47.454  18.818  21.415  0.00  0.00    -0.023 A 
ATOM     13  C   UNL     1      48.174  18.257  20.372  0.00  0.00    +0.189 A 
ATOM     14  C   UNL     1      47.592  18.163  19.095  0.00  0.00    -0.263 A 
ATOM     15  C   UNL     1      48.380  17.562  18.005  0.00  0.00    +0.424 A 
ATOM     16  C   UNL     1      49.687  17.115  18.317  0.00  0.00    -0.146 A 
ATOM     17  C   UNL     1      50.158  17.252  19.584  0.00  0.00    +0.208 A 
ATOM     24  O   UNL     1      47.925  17.455  16.878  0.00  0.00    -0.452 OA
ATOM     25  O   UNL     1      49.430  17.801  20.569  0.00  0.00    -0.217 OA
ATOM     26  C   UNL     1      46.289  18.626  18.877  0.00  0.00    +0.238 A 
ENDROOT
BRANCH   8   7
ATOM      1  C   UNL     1      40.191  21.018  19.120  0.00  0.00    +0.182 C 
ATOM      2  C   UNL     1      41.623  20.593  19.321  0.00  0.00    +0.076 A 
ATOM      3  C   UNL     1      42.608  21.505  19.163  0.00  0.00    -0.052 A 
ATOM      6  C   UNL     1      43.957  21.100  19.354  0.00  0.00    +0.387 A 
ATOM      7  C   UNL     1      44.201  19.695  19.717  0.00  0.00    -0.225 A 
ATOM     29  C   UNL     1      43.127  18.868  19.847  0.00  0.00    +0.336 A 
ATOM     30  O   UNL     1      44.880  21.888  19.223  0.00  0.00    -0.478 OA
ATOM     31  O   UNL     1      41.885  19.325  19.656  0.00  0.00    -0.191 OA
BRANCH   3   4
ATOM      4  O   UNL     1      42.313  22.790  18.827  0.00  0.00    -0.455 OA
ATOM      5  H   UNL     1      42.977  23.211  18.263  0.00  0.00    +0.409 HD
ENDBRANCH   3   4
ENDBRANCH   8   7
BRANCH  17  18
ATOM     18  C   UNL     1      51.523  16.779  19.889  0.00  0.00    -0.075 A 
ATOM     19  C   UNL     1      52.503  16.776  18.895  0.00  0.00    +0.056 A 
ATOM     20  C   UNL     1      53.776  16.332  19.187  0.00  0.00    +0.014 A 
ATOM     21  C   UNL     1      54.083  15.891  20.462  0.00  0.00    +0.038 A 
ATOM     22  C   UNL     1      53.117  15.891  21.452  0.00  0.00    +0.010 A 
ATOM     23  C   UNL     1      51.841  16.337  21.175  0.00  0.00    +0.056 A 
ENDBRANCH  17  18
BRANCH   9  10
ATOM     10  O   UNL     1      45.471  19.832  22.229  0.00  0.00    -0.479 OA
ATOM     11  H   UNL     1      46.005  20.388  22.814  0.00  0.00    +0.401 HD
ENDBRANCH   9  10
BRANCH  26  27
ATOM     27  O   UNL     1      45.725  18.530  17.646  0.00  0.00    -0.469 OA
ATOM     28  H   UNL     1      44.907  19.034  17.548  0.00  0.00    +0.404 HD
ENDBRANCH  26  27
TORSDOF 5
ENDMDL
