MODEL 1
REMARK VINA RESULT:      -7.6      0.000      0.000
REMARK  Name = ZINC95485958
REMARK  9 active torsions:
REMARK  status: ('A' for Active; 'I' for Inactive)
REMARK    1  A    between atoms: C1_1  and  C2_2
REMARK    2  A    between atoms: C9_9  and  O4_17
REMARK    3  A    between atoms: C10_10  and  O3_15
REMARK    4  A    between atoms: O3_15  and  C13_16
REMARK    5  A    between atoms: C16_22  and  O7_23
REMARK    6  A    between atoms: O7_23  and  C17_24
REMARK    7  A    between atoms: C18_26  and  O11_36
REMARK    8  A    between atoms: C19_28  and  O10_35
REMARK    9  A    between atoms: C20_30  and  O9_34
REMARK                            x       y       z     vdW  Elec       q    Type
REMARK                         _______ _______ _______ _____ _____    ______ ____
ROOT
ATOM      1  C   UNL     1      43.430  18.495  22.505  0.00  0.00    +0.137 C 
ATOM      2  C   UNL     1      44.103  17.640  21.462  0.00  0.00    -0.046 A 
ATOM      3  C   UNL     1      44.271  16.289  21.706  0.00  0.00    +0.119 A 
ATOM      4  C   UNL     1      44.893  15.499  20.749  0.00  0.00    -0.125 A 
ATOM      5  C   UNL     1      45.325  16.102  19.548  0.00  0.00    -0.081 A 
ATOM      6  C   UNL     1      45.970  15.242  18.548  0.00  0.00    -0.076 A 
ATOM      7  C   UNL     1      46.576  15.871  17.439  0.00  0.00    -0.122 A 
ATOM      8  C   UNL     1      46.525  17.341  17.403  0.00  0.00    +0.537 A 
ATOM      9  O   UNL     1      45.564  17.981  18.113  0.00  0.00    -0.263 OA
ATOM     10  O   UNL     1      47.331  17.971  16.746  0.00  0.00    -0.411 OA
ATOM     11  C   UNL     1      47.191  15.081  16.478  0.00  0.00    +0.107 A 
ATOM     12  C   UNL     1      47.210  13.703  16.642  0.00  0.00    +0.124 A 
ATOM     15  C   UNL     1      46.619  13.090  17.748  0.00  0.00    +0.110 A 
ATOM     18  C   UNL     1      45.981  13.859  18.716  0.00  0.00    +0.127 A 
ATOM     19  O   UNL     1      45.351  13.310  19.785  0.00  0.00    -0.261 OA
ATOM     20  C   UNL     1      45.154  17.460  19.297  0.00  0.00    +0.123 A 
ATOM     21  C   UNL     1      45.154  14.059  20.897  0.00  0.00    +0.535 A 
ATOM     22  O   UNL     1      45.192  13.548  22.000  0.00  0.00    -0.413 OA
ATOM     23  C   UNL     1      44.532  18.231  20.278  0.00  0.00    +0.125 A 
ENDROOT
BRANCH  12  13
ATOM     13  O   UNL     1      47.820  12.932  15.704  0.00  0.00    -0.470 OA
ATOM     14  H   UNL     1      48.176  13.430  14.956  0.00  0.00    +0.399 HD
ENDBRANCH  12  13
BRANCH  15  16
ATOM     16  O   UNL     1      46.666  11.738  17.879  0.00  0.00    -0.311 OA
ATOM     17  C   UNL     1      47.850  11.183  18.454  0.00  0.00    +0.243 C 
ENDBRANCH  15  16
BRANCH  23  24
ATOM     24  O   UNL     1      44.350  19.562  20.080  0.00  0.00    -0.293 OA
BRANCH  24  25
ATOM     25  C   UNL     1      43.006  20.012  19.895  0.00  0.00    +0.303 C 
ATOM     26  C   UNL     1      43.016  21.388  19.225  0.00  0.00    +0.192 C 
ATOM     29  C   UNL     1      41.574  21.837  18.976  0.00  0.00    +0.198 C 
ATOM     32  C   UNL     1      40.862  20.781  18.124  0.00  0.00    +0.122 C 
ATOM     35  C   UNL     1      40.935  19.428  18.838  0.00  0.00    +0.220 C 
ATOM     36  O   UNL     1      42.302  19.086  19.066  0.00  0.00    -0.386 OA
BRANCH  26  27
ATOM     27  O   UNL     1      43.671  22.330  20.078  0.00  0.00    -0.538 OA
ATOM     28  H   UNL     1      44.169  23.010  19.604  0.00  0.00    +0.392 HD
ENDBRANCH  26  27
BRANCH  29  30
ATOM     30  O   UNL     1      41.574  23.089  18.286  0.00  0.00    -0.544 OA
ATOM     31  H   UNL     1      40.960  23.740  18.651  0.00  0.00    +0.391 HD
ENDBRANCH  29  30
BRANCH  32  33
ATOM     33  O   UNL     1      39.495  21.155  17.945  0.00  0.00    -0.555 OA
ATOM     34  H   UNL     1      39.197  21.129  17.025  0.00  0.00    +0.391 HD
ENDBRANCH  32  33
ENDBRANCH  24  25
ENDBRANCH  23  24
TORSDOF 7
ENDMDL
MODEL 2
REMARK VINA RESULT:      -7.2      3.450      5.316
REMARK  Name = ZINC95485958
REMARK  9 active torsions:
REMARK  status: ('A' for Active; 'I' for Inactive)
REMARK    1  A    between atoms: C1_1  and  C2_2
REMARK    2  A    between atoms: C9_9  and  O4_17
REMARK    3  A    between atoms: C10_10  and  O3_15
REMARK    4  A    between atoms: O3_15  and  C13_16
REMARK    5  A    between atoms: C16_22  and  O7_23
REMARK    6  A    between atoms: O7_23  and  C17_24
REMARK    7  A    between atoms: C18_26  and  O11_36
REMARK    8  A    between atoms: C19_28  and  O10_35
REMARK    9  A    between atoms: C20_30  and  O9_34
REMARK                            x       y       z     vdW  Elec       q    Type
REMARK                         _______ _______ _______ _____ _____    ______ ____
ROOT
ATOM      1  C   UNL     1      44.953  15.355  20.321  0.00  0.00    +0.137 C 
ATOM      2  C   UNL     1      46.083  16.289  19.971  0.00  0.00    -0.046 A 
ATOM      3  C   UNL     1      47.139  15.814  19.215  0.00  0.00    +0.119 A 
ATOM      4  C   UNL     1      48.183  16.670  18.894  0.00  0.00    -0.125 A 
ATOM      5  C   UNL     1      48.127  18.008  19.342  0.00  0.00    -0.081 A 
ATOM      6  C   UNL     1      49.239  18.895  18.979  0.00  0.00    -0.076 A 
ATOM      7  C   UNL     1      49.283  20.168  19.588  0.00  0.00    -0.122 A 
ATOM      8  C   UNL     1      48.217  20.477  20.553  0.00  0.00    +0.537 A 
ATOM      9  O   UNL     1      47.050  19.792  20.482  0.00  0.00    -0.263 OA
ATOM     10  O   UNL     1      48.381  21.334  21.401  0.00  0.00    -0.411 OA
ATOM     11  C   UNL     1      50.323  21.027  19.261  0.00  0.00    +0.107 A 
ATOM     12  C   UNL     1      51.295  20.606  18.365  0.00  0.00    +0.124 A 
ATOM     15  C   UNL     1      51.250  19.341  17.777  0.00  0.00    +0.110 A 
ATOM     18  C   UNL     1      50.209  18.468  18.075  0.00  0.00    +0.127 A 
ATOM     19  O   UNL     1      50.094  17.247  17.496  0.00  0.00    -0.261 OA
ATOM     20  C   UNL     1      47.064  18.490  20.101  0.00  0.00    +0.123 A 
ATOM     21  C   UNL     1      49.372  16.282  18.119  0.00  0.00    +0.535 A 
ATOM     22  O   UNL     1      49.702  15.114  18.037  0.00  0.00    -0.413 OA
ATOM     23  C   UNL     1      46.033  17.607  20.414  0.00  0.00    +0.125 A 
ENDROOT
BRANCH  12  13
ATOM     13  O   UNL     1      52.317  21.446  18.052  0.00  0.00    -0.470 OA
ATOM     14  H   UNL     1      53.017  21.036  17.526  0.00  0.00    +0.399 HD
ENDBRANCH  12  13
BRANCH  15  16
ATOM     16  O   UNL     1      52.226  18.962  16.911  0.00  0.00    -0.311 OA
ATOM     17  C   UNL     1      52.030  19.282  15.531  0.00  0.00    +0.243 C 
ENDBRANCH  15  16
BRANCH  23  24
ATOM     24  O   UNL     1      44.979  18.032  21.158  0.00  0.00    -0.293 OA
BRANCH  24  25
ATOM     25  C   UNL     1      43.784  18.373  20.453  0.00  0.00    +0.303 C 
ATOM     26  C   UNL     1      42.661  18.650  21.456  0.00  0.00    +0.192 C 
ATOM     29  C   UNL     1      41.401  19.072  20.696  0.00  0.00    +0.198 C 
ATOM     32  C   UNL     1      41.723  20.297  19.834  0.00  0.00    +0.122 C 
ATOM     35  C   UNL     1      42.883  19.956  18.893  0.00  0.00    +0.220 C 
ATOM     36  O   UNL     1      44.012  19.541  19.663  0.00  0.00    -0.386 OA
BRANCH  26  27
ATOM     27  O   UNL     1      42.391  17.465  22.209  0.00  0.00    -0.538 OA
ATOM     28  H   UNL     1      41.562  17.494  22.705  0.00  0.00    +0.392 HD
ENDBRANCH  26  27
BRANCH  29  30
ATOM     30  O   UNL     1      40.367  19.401  21.628  0.00  0.00    -0.544 OA
ATOM     31  H   UNL     1      40.505  20.240  22.088  0.00  0.00    +0.391 HD
ENDBRANCH  29  30
BRANCH  32  33
ATOM     33  O   UNL     1      40.574  20.657  19.066  0.00  0.00    -0.555 OA
ATOM     34  H   UNL     1      40.661  20.480  18.120  0.00  0.00    +0.391 HD
ENDBRANCH  32  33
ENDBRANCH  24  25
ENDBRANCH  23  24
TORSDOF 7
ENDMDL
MODEL 3
REMARK VINA RESULT:      -7.0      3.426      4.823
REMARK  Name = ZINC95485958
REMARK  9 active torsions:
REMARK  status: ('A' for Active; 'I' for Inactive)
REMARK    1  A    between atoms: C1_1  and  C2_2
REMARK    2  A    between atoms: C9_9  and  O4_17
REMARK    3  A    between atoms: C10_10  and  O3_15
REMARK    4  A    between atoms: O3_15  and  C13_16
REMARK    5  A    between atoms: C16_22  and  O7_23
REMARK    6  A    between atoms: O7_23  and  C17_24
REMARK    7  A    between atoms: C18_26  and  O11_36
REMARK    8  A    between atoms: C19_28  and  O10_35
REMARK    9  A    between atoms: C20_30  and  O9_34
REMARK                            x       y       z     vdW  Elec       q    Type
REMARK                         _______ _______ _______ _____ _____    ______ ____
ROOT
ATOM      1  C   UNL     1      46.826  22.629  21.832  0.00  0.00    +0.137 C 
ATOM      2  C   UNL     1      47.398  21.478  21.045  0.00  0.00    -0.046 A 
ATOM      3  C   UNL     1      48.752  21.463  20.763  0.00  0.00    +0.119 A 
ATOM      4  C   UNL     1      49.282  20.406  20.035  0.00  0.00    -0.125 A 
ATOM      5  C   UNL     1      48.419  19.371  19.615  0.00  0.00    -0.081 A 
ATOM      6  C   UNL     1      49.008  18.260  18.857  0.00  0.00    -0.076 A 
ATOM      7  C   UNL     1      48.123  17.331  18.269  0.00  0.00    -0.122 A 
ATOM      8  C   UNL     1      46.684  17.579  18.452  0.00  0.00    +0.537 A 
ATOM      9  O   UNL     1      46.279  18.346  19.494  0.00  0.00    -0.263 OA
ATOM     10  O   UNL     1      45.872  17.103  17.682  0.00  0.00    -0.411 OA
ATOM     11  C   UNL     1      48.653  16.269  17.548  0.00  0.00    +0.107 A 
ATOM     12  C   UNL     1      50.029  16.163  17.410  0.00  0.00    +0.124 A 
ATOM     15  C   UNL     1      50.897  17.094  17.984  0.00  0.00    +0.110 A 
ATOM     18  C   UNL     1      50.390  18.156  18.726  0.00  0.00    +0.127 A 
ATOM     19  O   UNL     1      51.191  19.060  19.343  0.00  0.00    -0.261 OA
ATOM     20  C   UNL     1      47.057  19.381  19.900  0.00  0.00    +0.123 A 
ATOM     21  C   UNL     1      50.697  20.285  19.650  0.00  0.00    +0.535 A 
ATOM     22  O   UNL     1      51.412  21.268  19.608  0.00  0.00    -0.413 OA
ATOM     23  C   UNL     1      46.551  20.457  20.626  0.00  0.00    +0.125 A 
ENDROOT
BRANCH  12  13
ATOM     13  O   UNL     1      50.546  15.128  16.696  0.00  0.00    -0.470 OA
ATOM     14  H   UNL     1      50.289  15.125  15.764  0.00  0.00    +0.399 HD
ENDBRANCH  12  13
BRANCH  15  16
ATOM     16  O   UNL     1      52.238  16.960  17.819  0.00  0.00    -0.311 OA
ATOM     17  C   UNL     1      52.953  16.269  18.845  0.00  0.00    +0.243 C 
ENDBRANCH  15  16
BRANCH  23  24
ATOM     24  O   UNL     1      45.226  20.512  20.921  0.00  0.00    -0.293 OA
BRANCH  24  25
ATOM     25  C   UNL     1      44.354  20.999  19.898  0.00  0.00    +0.303 C 
ATOM     26  C   UNL     1      43.156  20.056  19.759  0.00  0.00    +0.192 C 
ATOM     29  C   UNL     1      42.197  20.615  18.704  0.00  0.00    +0.198 C 
ATOM     32  C   UNL     1      41.777  22.031  19.110  0.00  0.00    +0.122 C 
ATOM     35  C   UNL     1      43.029  22.897  19.274  0.00  0.00    +0.220 C 
ATOM     36  O   UNL     1      43.892  22.305  20.246  0.00  0.00    -0.386 OA
BRANCH  26  27
ATOM     27  O   UNL     1      43.611  18.762  19.355  0.00  0.00    -0.538 OA
ATOM     28  H   UNL     1      44.218  18.345  19.982  0.00  0.00    +0.392 HD
ENDBRANCH  26  27
BRANCH  29  30
ATOM     30  O   UNL     1      41.041  19.778  18.617  0.00  0.00    -0.544 OA
ATOM     31  H   UNL     1      41.080  18.994  19.180  0.00  0.00    +0.391 HD
ENDBRANCH  29  30
BRANCH  32  33
ATOM     33  O   UNL     1      40.938  22.589  18.097  0.00  0.00    -0.555 OA
ATOM     34  H   UNL     1      41.393  23.198  17.500  0.00  0.00    +0.391 HD
ENDBRANCH  32  33
ENDBRANCH  24  25
ENDBRANCH  23  24
TORSDOF 7
ENDMDL
MODEL 4
REMARK VINA RESULT:      -6.7      2.270      7.363
REMARK  Name = ZINC95485958
REMARK  9 active torsions:
REMARK  status: ('A' for Active; 'I' for Inactive)
REMARK    1  A    between atoms: C1_1  and  C2_2
REMARK    2  A    between atoms: C9_9  and  O4_17
REMARK    3  A    between atoms: C10_10  and  O3_15
REMARK    4  A    between atoms: O3_15  and  C13_16
REMARK    5  A    between atoms: C16_22  and  O7_23
REMARK    6  A    between atoms: O7_23  and  C17_24
REMARK    7  A    between atoms: C18_26  and  O11_36
REMARK    8  A    between atoms: C19_28  and  O10_35
REMARK    9  A    between atoms: C20_30  and  O9_34
REMARK                            x       y       z     vdW  Elec       q    Type
REMARK                         _______ _______ _______ _____ _____    ______ ____
ROOT
ATOM      1  C   UNL     1      45.685  13.021  21.230  0.00  0.00    +0.137 C 
ATOM      2  C   UNL     1      45.623  14.476  20.842  0.00  0.00    -0.046 A 
ATOM      3  C   UNL     1      44.789  15.325  21.546  0.00  0.00    +0.119 A 
ATOM      4  C   UNL     1      44.727  16.666  21.189  0.00  0.00    -0.125 A 
ATOM      5  C   UNL     1      45.531  17.122  20.122  0.00  0.00    -0.081 A 
ATOM      6  C   UNL     1      45.455  18.546  19.774  0.00  0.00    -0.076 A 
ATOM      7  C   UNL     1      46.102  18.963  18.590  0.00  0.00    -0.122 A 
ATOM      8  C   UNL     1      46.774  17.920  17.801  0.00  0.00    +0.537 A 
ATOM      9  O   UNL     1      47.146  16.770  18.415  0.00  0.00    -0.263 OA
ATOM     10  O   UNL     1      46.995  18.087  16.616  0.00  0.00    -0.411 OA
ATOM     11  C   UNL     1      46.047  20.304  18.238  0.00  0.00    +0.107 A 
ATOM     12  C   UNL     1      45.346  21.190  19.043  0.00  0.00    +0.124 A 
ATOM     15  C   UNL     1      44.698  20.767  20.205  0.00  0.00    +0.110 A 
ATOM     18  C   UNL     1      44.753  19.431  20.589  0.00  0.00    +0.127 A 
ATOM     19  O   UNL     1      44.181  18.977  21.732  0.00  0.00    -0.261 OA
ATOM     20  C   UNL     1      46.375  16.271  19.414  0.00  0.00    +0.123 A 
ATOM     21  C   UNL     1      43.864  17.663  21.840  0.00  0.00    +0.535 A 
ATOM     22  O   UNL     1      42.880  17.315  22.466  0.00  0.00    -0.413 OA
ATOM     23  C   UNL     1      46.412  14.930  19.789  0.00  0.00    +0.125 A 
ENDROOT
BRANCH  12  13
ATOM     13  O   UNL     1      45.286  22.501  18.692  0.00  0.00    -0.470 OA
ATOM     14  H   UNL     1      44.422  22.910  18.841  0.00  0.00    +0.399 HD
ENDBRANCH  12  13
BRANCH  15  16
ATOM     16  O   UNL     1      44.014  21.662  20.964  0.00  0.00    -0.311 OA
ATOM     17  C   UNL     1      44.761  22.392  21.939  0.00  0.00    +0.243 C 
ENDBRANCH  15  16
BRANCH  23  24
ATOM     24  O   UNL     1      47.215  14.061  19.122  0.00  0.00    -0.293 OA
BRANCH  24  25
ATOM     25  C   UNL     1      46.765  13.615  17.841  0.00  0.00    +0.303 C 
ATOM     26  C   UNL     1      47.918  13.698  16.838  0.00  0.00    +0.192 C 
ATOM     29  C   UNL     1      47.446  13.163  15.483  0.00  0.00    +0.198 C 
ATOM     32  C   UNL     1      46.934  11.730  15.663  0.00  0.00    +0.122 C 
ATOM     35  C   UNL     1      45.819  11.723  16.712  0.00  0.00    +0.220 C 
ATOM     36  O   UNL     1      46.316  12.263  17.937  0.00  0.00    -0.386 OA
BRANCH  26  27
ATOM     27  O   UNL     1      48.332  15.059  16.697  0.00  0.00    -0.538 OA
ATOM     28  H   UNL     1      47.634  15.652  16.384  0.00  0.00    +0.392 HD
ENDBRANCH  26  27
BRANCH  29  30
ATOM     30  O   UNL     1      48.536  13.170  14.559  0.00  0.00    -0.544 OA
ATOM     31  H   UNL     1      48.914  12.297  14.389  0.00  0.00    +0.391 HD
ENDBRANCH  29  30
BRANCH  32  33
ATOM     33  O   UNL     1      46.425  11.245  14.419  0.00  0.00    -0.555 OA
ATOM     34  H   UNL     1      46.357  11.921  13.731  0.00  0.00    +0.391 HD
ENDBRANCH  32  33
ENDBRANCH  24  25
ENDBRANCH  23  24
TORSDOF 7
ENDMDL
MODEL 5
REMARK VINA RESULT:      -6.6      3.445      7.226
REMARK  Name = ZINC95485958
REMARK  9 active torsions:
REMARK  status: ('A' for Active; 'I' for Inactive)
REMARK    1  A    between atoms: C1_1  and  C2_2
REMARK    2  A    between atoms: C9_9  and  O4_17
REMARK    3  A    between atoms: C10_10  and  O3_15
REMARK    4  A    between atoms: O3_15  and  C13_16
REMARK    5  A    between atoms: C16_22  and  O7_23
REMARK    6  A    between atoms: O7_23  and  C17_24
REMARK    7  A    between atoms: C18_26  and  O11_36
REMARK    8  A    between atoms: C19_28  and  O10_35
REMARK    9  A    between atoms: C20_30  and  O9_34
REMARK                            x       y       z     vdW  Elec       q    Type
REMARK                         _______ _______ _______ _____ _____    ______ ____
ROOT
ATOM      1  C   UNL     1      49.524  16.154  21.536  0.00  0.00    +0.137 C 
ATOM      2  C   UNL     1      48.256  16.903  21.216  0.00  0.00    -0.046 A 
ATOM      3  C   UNL     1      47.037  16.305  21.479  0.00  0.00    +0.119 A 
ATOM      4  C   UNL     1      45.867  16.990  21.183  0.00  0.00    -0.125 A 
ATOM      5  C   UNL     1      45.960  18.286  20.631  0.00  0.00    -0.081 A 
ATOM      6  C   UNL     1      44.708  18.993  20.338  0.00  0.00    -0.076 A 
ATOM      7  C   UNL     1      44.794  20.198  19.609  0.00  0.00    -0.122 A 
ATOM      8  C   UNL     1      46.139  20.622  19.188  0.00  0.00    +0.537 A 
ATOM      9  O   UNL     1      47.215  20.151  19.863  0.00  0.00    -0.263 OA
ATOM     10  O   UNL     1      46.281  21.383  18.250  0.00  0.00    -0.411 OA
ATOM     11  C   UNL     1      43.625  20.888  19.320  0.00  0.00    +0.107 A 
ATOM     12  C   UNL     1      42.409  20.366  19.736  0.00  0.00    +0.124 A 
ATOM     15  C   UNL     1      42.331  19.167  20.446  0.00  0.00    +0.110 A 
ATOM     18  C   UNL     1      43.490  18.466  20.763  0.00  0.00    +0.127 A 
ATOM     19  O   UNL     1      43.473  17.321  21.491  0.00  0.00    -0.261 OA
ATOM     20  C   UNL     1      47.185  18.893  20.369  0.00  0.00    +0.123 A 
ATOM     21  C   UNL     1      44.512  16.456  21.392  0.00  0.00    +0.535 A 
ATOM     22  O   UNL     1      44.326  15.256  21.473  0.00  0.00    -0.413 OA
ATOM     23  C   UNL     1      48.344  18.179  20.670  0.00  0.00    +0.125 A 
ENDROOT
BRANCH  12  13
ATOM     13  O   UNL     1      41.264  21.039  19.444  0.00  0.00    -0.470 OA
ATOM     14  H   UNL     1      41.001  20.984  18.515  0.00  0.00    +0.399 HD
ENDBRANCH  12  13
BRANCH  15  16
ATOM     16  O   UNL     1      41.120  18.684  20.829  0.00  0.00    -0.311 OA
ATOM     17  C   UNL     1      40.512  19.288  21.972  0.00  0.00    +0.243 C 
ENDBRANCH  15  16
BRANCH  23  24
ATOM     24  O   UNL     1      49.561  18.729  20.424  0.00  0.00    -0.293 OA
BRANCH  24  25
ATOM     25  C   UNL     1      49.996  18.758  19.063  0.00  0.00    +0.303 C 
ATOM     26  C   UNL     1      50.577  20.138  18.743  0.00  0.00    +0.192 C 
ATOM     29  C   UNL     1      51.096  20.143  17.302  0.00  0.00    +0.198 C 
ATOM     32  C   UNL     1      52.130  19.025  17.138  0.00  0.00    +0.122 C 
ATOM     35  C   UNL     1      51.488  17.688  17.521  0.00  0.00    +0.220 C 
ATOM     36  O   UNL     1      51.000  17.762  18.861  0.00  0.00    -0.386 OA
BRANCH  26  27
ATOM     27  O   UNL     1      49.559  21.130  18.889  0.00  0.00    -0.538 OA
ATOM     28  H   UNL     1      49.764  21.811  19.545  0.00  0.00    +0.392 HD
ENDBRANCH  26  27
BRANCH  29  30
ATOM     30  O   UNL     1      51.704  21.405  17.017  0.00  0.00    -0.544 OA
ATOM     31  H   UNL     1      52.406  21.362  16.354  0.00  0.00    +0.391 HD
ENDBRANCH  29  30
BRANCH  32  33
ATOM     33  O   UNL     1      52.569  18.975  15.780  0.00  0.00    -0.555 OA
ATOM     34  H   UNL     1      52.565  19.832  15.334  0.00  0.00    +0.391 HD
ENDBRANCH  32  33
ENDBRANCH  24  25
ENDBRANCH  23  24
TORSDOF 7
ENDMDL
MODEL 6
REMARK VINA RESULT:      -6.6      2.990      4.944
REMARK  Name = ZINC95485958
REMARK  9 active torsions:
REMARK  status: ('A' for Active; 'I' for Inactive)
REMARK    1  A    between atoms: C1_1  and  C2_2
REMARK    2  A    between atoms: C9_9  and  O4_17
REMARK    3  A    between atoms: C10_10  and  O3_15
REMARK    4  A    between atoms: O3_15  and  C13_16
REMARK    5  A    between atoms: C16_22  and  O7_23
REMARK    6  A    between atoms: O7_23  and  C17_24
REMARK    7  A    between atoms: C18_26  and  O11_36
REMARK    8  A    between atoms: C19_28  and  O10_35
REMARK    9  A    between atoms: C20_30  and  O9_34
REMARK                            x       y       z     vdW  Elec       q    Type
REMARK                         _______ _______ _______ _____ _____    ______ ____
ROOT
ATOM      1  C   UNL     1      49.316  20.823  19.302  0.00  0.00    +0.137 C 
ATOM      2  C   UNL     1      49.333  19.401  18.800  0.00  0.00    -0.046 A 
ATOM      3  C   UNL     1      50.359  18.995  17.967  0.00  0.00    +0.119 A 
ATOM      4  C   UNL     1      50.377  17.688  17.500  0.00  0.00    -0.125 A 
ATOM      5  C   UNL     1      49.348  16.809  17.904  0.00  0.00    -0.081 A 
ATOM      6  C   UNL     1      49.397  15.429  17.405  0.00  0.00    -0.076 A 
ATOM      7  C   UNL     1      48.273  14.609  17.643  0.00  0.00    -0.122 A 
ATOM      8  C   UNL     1      47.142  15.227  18.352  0.00  0.00    +0.537 A 
ATOM      9  O   UNL     1      47.368  16.319  19.122  0.00  0.00    -0.263 OA
ATOM     10  O   UNL     1      46.021  14.764  18.249  0.00  0.00    -0.411 OA
ATOM     11  C   UNL     1      48.294  13.299  17.184  0.00  0.00    +0.107 A 
ATOM     12  C   UNL     1      49.405  12.841  16.490  0.00  0.00    +0.124 A 
ATOM     15  C   UNL     1      50.507  13.662  16.248  0.00  0.00    +0.110 A 
ATOM     18  C   UNL     1      50.517  14.973  16.714  0.00  0.00    +0.127 A 
ATOM     19  O   UNL     1      51.582  15.797  16.546  0.00  0.00    -0.261 OA
ATOM     20  C   UNL     1      48.316  17.213  18.745  0.00  0.00    +0.123 A 
ATOM     21  C   UNL     1      51.396  17.140  16.592  0.00  0.00    +0.535 A 
ATOM     22  O   UNL     1      52.062  17.879  15.892  0.00  0.00    -0.413 OA
ATOM     23  C   UNL     1      48.320  18.533  19.193  0.00  0.00    +0.125 A 
ENDROOT
BRANCH  12  13
ATOM     13  O   UNL     1      49.419  11.561  16.034  0.00  0.00    -0.470 OA
ATOM     14  H   UNL     1      48.707  11.009  16.385  0.00  0.00    +0.399 HD
ENDBRANCH  12  13
BRANCH  15  16
ATOM     16  O   UNL     1      51.572  13.180  15.557  0.00  0.00    -0.311 OA
ATOM     17  C   UNL     1      51.564  13.363  14.139  0.00  0.00    +0.243 C 
ENDBRANCH  15  16
BRANCH  23  24
ATOM     24  O   UNL     1      47.329  18.974  20.010  0.00  0.00    -0.293 OA
BRANCH  24  25
ATOM     25  C   UNL     1      46.204  19.597  19.387  0.00  0.00    +0.303 C 
ATOM     26  C   UNL     1      44.915  18.927  19.871  0.00  0.00    +0.192 C 
ATOM     29  C   UNL     1      43.712  19.639  19.246  0.00  0.00    +0.198 C 
ATOM     32  C   UNL     1      43.766  21.126  19.610  0.00  0.00    +0.122 C 
ATOM     35  C   UNL     1      45.099  21.711  19.135  0.00  0.00    +0.220 C 
ATOM     36  O   UNL     1      46.175  20.984  19.730  0.00  0.00    -0.386 OA
BRANCH  26  27
ATOM     27  O   UNL     1      44.916  17.553  19.479  0.00  0.00    -0.538 OA
ATOM     28  H   UNL     1      45.198  16.945  20.176  0.00  0.00    +0.392 HD
ENDBRANCH  26  27
BRANCH  29  30
ATOM     30  O   UNL     1      42.503  19.065  19.748  0.00  0.00    -0.544 OA
ATOM     31  H   UNL     1      41.872  19.714  20.087  0.00  0.00    +0.391 HD
ENDBRANCH  29  30
BRANCH  32  33
ATOM     33  O   UNL     1      42.687  21.813  18.973  0.00  0.00    -0.555 OA
ATOM     34  H   UNL     1      42.856  22.752  18.819  0.00  0.00    +0.391 HD
ENDBRANCH  32  33
ENDBRANCH  24  25
ENDBRANCH  23  24
TORSDOF 7
ENDMDL
MODEL 7
REMARK VINA RESULT:      -6.4      2.519      3.462
REMARK  Name = ZINC95485958
REMARK  9 active torsions:
REMARK  status: ('A' for Active; 'I' for Inactive)
REMARK    1  A    between atoms: C1_1  and  C2_2
REMARK    2  A    between atoms: C9_9  and  O4_17
REMARK    3  A    between atoms: C10_10  and  O3_15
REMARK    4  A    between atoms: O3_15  and  C13_16
REMARK    5  A    between atoms: C16_22  and  O7_23
REMARK    6  A    between atoms: O7_23  and  C17_24
REMARK    7  A    between atoms: C18_26  and  O11_36
REMARK    8  A    between atoms: C19_28  and  O10_35
REMARK    9  A    between atoms: C20_30  and  O9_34
REMARK                            x       y       z     vdW  Elec       q    Type
REMARK                         _______ _______ _______ _____ _____    ______ ____
ROOT
ATOM      1  C   UNL     1      43.600  17.026  21.721  0.00  0.00    +0.137 C 
ATOM      2  C   UNL     1      44.869  17.079  20.909  0.00  0.00    -0.046 A 
ATOM      3  C   UNL     1      45.403  15.901  20.418  0.00  0.00    +0.119 A 
ATOM      4  C   UNL     1      46.573  15.945  19.673  0.00  0.00    -0.125 A 
ATOM      5  C   UNL     1      47.175  17.198  19.428  0.00  0.00    -0.081 A 
ATOM      6  C   UNL     1      48.405  17.217  18.627  0.00  0.00    -0.076 A 
ATOM      7  C   UNL     1      49.113  18.436  18.548  0.00  0.00    -0.122 A 
ATOM      8  C   UNL     1      48.560  19.572  19.301  0.00  0.00    +0.537 A 
ATOM      9  O   UNL     1      47.245  19.565  19.628  0.00  0.00    -0.263 OA
ATOM     10  O   UNL     1      49.272  20.505  19.625  0.00  0.00    -0.411 OA
ATOM     11  C   UNL     1      50.279  18.483  17.796  0.00  0.00    +0.107 A 
ATOM     12  C   UNL     1      50.724  17.331  17.162  0.00  0.00    +0.124 A 
ATOM     15  C   UNL     1      50.024  16.127  17.256  0.00  0.00    +0.110 A 
ATOM     18  C   UNL     1      48.844  16.060  17.989  0.00  0.00    +0.127 A 
ATOM     19  O   UNL     1      48.102  14.927  18.073  0.00  0.00    -0.261 OA
ATOM     20  C   UNL     1      46.638  18.386  19.917  0.00  0.00    +0.123 A 
ATOM     21  C   UNL     1      47.253  14.765  19.118  0.00  0.00    +0.535 A 
ATOM     22  O   UNL     1      47.058  13.660  19.588  0.00  0.00    -0.413 OA
ATOM     23  C   UNL     1      45.467  18.312  20.667  0.00  0.00    +0.125 A 
ENDROOT
BRANCH  12  13
ATOM     13  O   UNL     1      51.870  17.377  16.433  0.00  0.00    -0.470 OA
ATOM     14  H   UNL     1      52.277  16.512  16.286  0.00  0.00    +0.399 HD
ENDBRANCH  12  13
BRANCH  15  16
ATOM     16  O   UNL     1      50.497  15.019  16.628  0.00  0.00    -0.311 OA
ATOM     17  C   UNL     1      51.327  14.143  17.394  0.00  0.00    +0.243 C 
ENDBRANCH  15  16
BRANCH  23  24
ATOM     24  O   UNL     1      44.911  19.444  21.170  0.00  0.00    -0.293 OA
BRANCH  24  25
ATOM     25  C   UNL     1      44.576  20.472  20.235  0.00  0.00    +0.303 C 
ATOM     26  C   UNL     1      43.053  20.593  20.134  0.00  0.00    +0.192 C 
ATOM     29  C   UNL     1      42.702  21.735  19.177  0.00  0.00    +0.198 C 
ATOM     32  C   UNL     1      43.355  23.027  19.679  0.00  0.00    +0.122 C 
ATOM     35  C   UNL     1      44.866  22.812  19.798  0.00  0.00    +0.220 C 
ATOM     36  O   UNL     1      45.122  21.716  20.677  0.00  0.00    -0.386 OA
BRANCH  26  27
ATOM     27  O   UNL     1      42.509  19.368  19.638  0.00  0.00    -0.538 OA
ATOM     28  H   UNL     1      43.090  18.603  19.755  0.00  0.00    +0.392 HD
ENDBRANCH  26  27
BRANCH  29  30
ATOM     30  O   UNL     1      41.283  21.902  19.130  0.00  0.00    -0.544 OA
ATOM     31  H   UNL     1      40.795  21.081  18.978  0.00  0.00    +0.391 HD
ENDBRANCH  29  30
BRANCH  32  33
ATOM     33  O   UNL     1      43.093  24.085  18.755  0.00  0.00    -0.555 OA
ATOM     34  H   UNL     1      43.827  24.275  18.157  0.00  0.00    +0.391 HD
ENDBRANCH  32  33
ENDBRANCH  24  25
ENDBRANCH  23  24
TORSDOF 7
ENDMDL
MODEL 8
REMARK VINA RESULT:      -6.4      3.753      8.962
REMARK  Name = ZINC95485958
REMARK  9 active torsions:
REMARK  status: ('A' for Active; 'I' for Inactive)
REMARK    1  A    between atoms: C1_1  and  C2_2
REMARK    2  A    between atoms: C9_9  and  O4_17
REMARK    3  A    between atoms: C10_10  and  O3_15
REMARK    4  A    between atoms: O3_15  and  C13_16
REMARK    5  A    between atoms: C16_22  and  O7_23
REMARK    6  A    between atoms: O7_23  and  C17_24
REMARK    7  A    between atoms: C18_26  and  O11_36
REMARK    8  A    between atoms: C19_28  and  O10_35
REMARK    9  A    between atoms: C20_30  and  O9_34
REMARK                            x       y       z     vdW  Elec       q    Type
REMARK                         _______ _______ _______ _____ _____    ______ ____
ROOT
ATOM      1  C   UNL     1      46.155  13.021  17.190  0.00  0.00    +0.137 C 
ATOM      2  C   UNL     1      46.935  14.284  17.449  0.00  0.00    -0.046 A 
ATOM      3  C   UNL     1      46.265  15.407  17.899  0.00  0.00    +0.119 A 
ATOM      4  C   UNL     1      46.979  16.574  18.135  0.00  0.00    -0.125 A 
ATOM      5  C   UNL     1      48.374  16.572  17.919  0.00  0.00    -0.081 A 
ATOM      6  C   UNL     1      49.107  17.815  18.187  0.00  0.00    -0.076 A 
ATOM      7  C   UNL     1      50.459  17.875  17.786  0.00  0.00    -0.122 A 
ATOM      8  C   UNL     1      51.002  16.686  17.110  0.00  0.00    +0.537 A 
ATOM      9  O   UNL     1      50.398  15.489  17.305  0.00  0.00    -0.263 OA
ATOM     10  O   UNL     1      51.978  16.777  16.390  0.00  0.00    -0.411 OA
ATOM     11  C   UNL     1      51.176  19.038  18.029  0.00  0.00    +0.107 A 
ATOM     12  C   UNL     1      50.541  20.111  18.639  0.00  0.00    +0.124 A 
ATOM     15  C   UNL     1      49.200  20.048  19.021  0.00  0.00    +0.110 A 
ATOM     18  C   UNL     1      48.466  18.887  18.804  0.00  0.00    +0.127 A 
ATOM     19  O   UNL     1      47.174  18.757  19.198  0.00  0.00    -0.261 OA
ATOM     20  C   UNL     1      49.052  15.442  17.470  0.00  0.00    +0.123 A 
ATOM     21  C   UNL     1      46.383  17.839  18.590  0.00  0.00    +0.535 A 
ATOM     22  O   UNL     1      45.198  18.060  18.424  0.00  0.00    -0.413 OA
ATOM     23  C   UNL     1      48.309  14.287  17.234  0.00  0.00    +0.125 A 
ENDROOT
BRANCH  12  13
ATOM     13  O   UNL     1      51.243  21.252  18.869  0.00  0.00    -0.470 OA
ATOM     14  H   UNL     1      51.083  21.951  18.219  0.00  0.00    +0.399 HD
ENDBRANCH  12  13
BRANCH  15  16
ATOM     16  O   UNL     1      48.612  21.123  19.608  0.00  0.00    -0.311 OA
ATOM     17  C   UNL     1      48.499  21.104  21.033  0.00  0.00    +0.243 C 
ENDBRANCH  15  16
BRANCH  23  24
ATOM     24  O   UNL     1      48.927  13.162  16.789  0.00  0.00    -0.293 OA
BRANCH  24  25
ATOM     25  C   UNL     1      49.666  13.269  15.570  0.00  0.00    +0.303 C 
ATOM     26  C   UNL     1      50.950  12.441  15.678  0.00  0.00    +0.192 C 
ATOM     29  C   UNL     1      51.706  12.511  14.348  0.00  0.00    +0.198 C 
ATOM     32  C   UNL     1      50.790  12.018  13.225  0.00  0.00    +0.122 C 
ATOM     35  C   UNL     1      49.512  12.862  13.212  0.00  0.00    +0.220 C 
ATOM     36  O   UNL     1      48.874  12.778  14.487  0.00  0.00    -0.386 OA
BRANCH  26  27
ATOM     27  O   UNL     1      51.770  12.966  16.724  0.00  0.00    -0.538 OA
ATOM     28  H   UNL     1      51.280  13.221  17.518  0.00  0.00    +0.392 HD
ENDBRANCH  26  27
BRANCH  29  30
ATOM     30  O   UNL     1      52.870  11.684  14.416  0.00  0.00    -0.544 OA
ATOM     31  H   UNL     1      53.679  12.117  14.112  0.00  0.00    +0.391 HD
ENDBRANCH  29  30
BRANCH  32  33
ATOM     33  O   UNL     1      51.461  12.145  11.970  0.00  0.00    -0.555 OA
ATOM     34  H   UNL     1      52.423  12.078  12.030  0.00  0.00    +0.391 HD
ENDBRANCH  32  33
ENDBRANCH  24  25
ENDBRANCH  23  24
TORSDOF 7
ENDMDL
MODEL 9
REMARK VINA RESULT:      -6.2      2.321      8.162
REMARK  Name = ZINC95485958
REMARK  9 active torsions:
REMARK  status: ('A' for Active; 'I' for Inactive)
REMARK    1  A    between atoms: C1_1  and  C2_2
REMARK    2  A    between atoms: C9_9  and  O4_17
REMARK    3  A    between atoms: C10_10  and  O3_15
REMARK    4  A    between atoms: O3_15  and  C13_16
REMARK    5  A    between atoms: C16_22  and  O7_23
REMARK    6  A    between atoms: O7_23  and  C17_24
REMARK    7  A    between atoms: C18_26  and  O11_36
REMARK    8  A    between atoms: C19_28  and  O10_35
REMARK    9  A    between atoms: C20_30  and  O9_34
REMARK                            x       y       z     vdW  Elec       q    Type
REMARK                         _______ _______ _______ _____ _____    ______ ____
ROOT
ATOM      1  C   UNL     1      50.878  16.094  17.514  0.00  0.00    +0.137 C 
ATOM      2  C   UNL     1      49.604  16.723  18.016  0.00  0.00    -0.046 A 
ATOM      3  C   UNL     1      49.549  18.096  18.173  0.00  0.00    +0.119 A 
ATOM      4  C   UNL     1      48.378  18.679  18.639  0.00  0.00    -0.125 A 
ATOM      5  C   UNL     1      47.274  17.849  18.926  0.00  0.00    -0.081 A 
ATOM      6  C   UNL     1      46.045  18.492  19.406  0.00  0.00    -0.076 A 
ATOM      7  C   UNL     1      45.012  17.654  19.879  0.00  0.00    -0.122 A 
ATOM      8  C   UNL     1      45.276  16.207  19.869  0.00  0.00    +0.537 A 
ATOM      9  O   UNL     1      46.223  15.720  19.031  0.00  0.00    -0.263 OA
ATOM     10  O   UNL     1      44.655  15.460  20.601  0.00  0.00    -0.411 OA
ATOM     11  C   UNL     1      43.838  18.237  20.337  0.00  0.00    +0.107 A 
ATOM     12  C   UNL     1      43.721  19.619  20.335  0.00  0.00    +0.124 A 
ATOM     15  C   UNL     1      44.752  20.441  19.877  0.00  0.00    +0.110 A 
ATOM     18  C   UNL     1      45.931  19.880  19.397  0.00  0.00    +0.127 A 
ATOM     19  O   UNL     1      46.944  20.631  18.897  0.00  0.00    -0.261 OA
ATOM     20  C   UNL     1      47.324  16.467  18.765  0.00  0.00    +0.123 A 
ATOM     21  C   UNL     1      48.200  20.120  18.872  0.00  0.00    +0.535 A 
ATOM     22  O   UNL     1      49.164  20.844  19.040  0.00  0.00    -0.413 OA
ATOM     23  C   UNL     1      48.514  15.908  18.303  0.00  0.00    +0.125 A 
ENDROOT
BRANCH  12  13
ATOM     13  O   UNL     1      42.574  20.188  20.792  0.00  0.00    -0.470 OA
ATOM     14  H   UNL     1      41.774  19.872  20.349  0.00  0.00    +0.399 HD
ENDBRANCH  12  13
BRANCH  15  16
ATOM     16  O   UNL     1      44.603  21.791  19.899  0.00  0.00    -0.311 OA
ATOM     17  C   UNL     1      45.057  22.475  21.069  0.00  0.00    +0.243 C 
ENDBRANCH  15  16
BRANCH  23  24
ATOM     24  O   UNL     1      48.612  14.563  18.137  0.00  0.00    -0.293 OA
BRANCH  24  25
ATOM     25  C   UNL     1      47.764  13.968  17.153  0.00  0.00    +0.303 C 
ATOM     26  C   UNL     1      48.609  13.131  16.190  0.00  0.00    +0.192 C 
ATOM     29  C   UNL     1      47.688  12.448  15.175  0.00  0.00    +0.198 C 
ATOM     32  C   UNL     1      46.655  11.603  15.926  0.00  0.00    +0.122 C 
ATOM     35  C   UNL     1      45.885  12.499  16.899  0.00  0.00    +0.220 C 
ATOM     36  O   UNL     1      46.804  13.127  17.795  0.00  0.00    -0.386 OA
BRANCH  26  27
ATOM     27  O   UNL     1      49.533  13.980  15.504  0.00  0.00    -0.538 OA
ATOM     28  H   UNL     1      50.309  13.518  15.158  0.00  0.00    +0.392 HD
ENDBRANCH  26  27
BRANCH  29  30
ATOM     30  O   UNL     1      48.462  11.608  14.315  0.00  0.00    -0.544 OA
ATOM     31  H   UNL     1      47.934  11.076  13.705  0.00  0.00    +0.391 HD
ENDBRANCH  29  30
BRANCH  32  33
ATOM     33  O   UNL     1      45.747  11.017  14.992  0.00  0.00    -0.555 OA
ATOM     34  H   UNL     1      46.013  10.142  14.680  0.00  0.00    +0.391 HD
ENDBRANCH  32  33
ENDBRANCH  24  25
ENDBRANCH  23  24
TORSDOF 7
ENDMDL
