MODEL 1
REMARK VINA RESULT:      -5.6      0.000      0.000
REMARK  Name = ZINC95486345
REMARK  11 active torsions:
REMARK  status: ('A' for Active; 'I' for Inactive)
REMARK    1  A    between atoms: C1_1  and  N1_2
REMARK    2  A    between atoms: C6_7  and  O5_27
REMARK    3  A    between atoms: C7_8  and  O3_24
REMARK    4  A    between atoms: C15_17  and  O2_22
REMARK    5  A    between atoms: C16_18  and  O1_20
REMARK    6  A    between atoms: O1_20  and  C18_21
REMARK    7  A    between atoms: O2_22  and  C19_23
REMARK    8  A    between atoms: O3_24  and  C20_25
REMARK    9  A    between atoms: C20_25  and  O4_26
REMARK   10  A    between atoms: O5_27  and  C21_28
REMARK   11  A    between atoms: C21_28  and  O6_29
REMARK                            x       y       z     vdW  Elec       q    Type
REMARK                         _______ _______ _______ _____ _____    ______ ____
ROOT
ATOM      1  C   UNL     1      44.040  19.168  19.661  0.00  0.00    +0.196 C 
ATOM      2  N   UNL     1      45.406  19.680  19.486  0.00  0.00    -0.535 NA
ATOM      3  C   UNL     1      45.813  20.490  20.636  0.00  0.00    +0.177 C 
ATOM      4  C   UNL     1      47.114  21.222  20.347  0.00  0.00    +0.091 C 
ATOM      5  C   UNL     1      48.077  20.384  19.556  0.00  0.00    -0.022 A 
ATOM      6  C   UNL     1      49.362  20.880  19.359  0.00  0.00    -0.060 A 
ATOM      7  C   UNL     1      50.304  20.148  18.658  0.00  0.00    +0.134 A 
ATOM     12  C   UNL     1      49.967  18.904  18.140  0.00  0.00    +0.063 A 
ATOM     17  C   UNL     1      48.675  18.414  18.319  0.00  0.00    -0.006 A 
ATOM     18  C   UNL     1      48.292  17.092  17.769  0.00  0.00    -0.049 A 
ATOM     19  C   UNL     1      49.267  16.176  17.382  0.00  0.00    +0.009 A 
ATOM     20  C   UNL     1      48.888  14.940  16.888  0.00  0.00    +0.092 A 
ATOM     23  C   UNL     1      47.538  14.618  16.780  0.00  0.00    +0.111 A 
ATOM     26  C   UNL     1      46.569  15.534  17.159  0.00  0.00    -0.034 A 
ATOM     27  C   UNL     1      46.942  16.772  17.646  0.00  0.00    -0.060 A 
ATOM     28  C   UNL     1      45.898  17.781  18.041  0.00  0.00    +0.103 C 
ATOM     29  C   UNL     1      47.733  19.154  19.038  0.00  0.00    -0.090 A 
ATOM     30  C   UNL     1      46.357  18.582  19.257  0.00  0.00    +0.194 C 
ENDROOT
BRANCH  20  21
ATOM     21  O   UNL     1      49.835  14.041  16.506  0.00  0.00    -0.305 OA
ATOM     22  C   UNL     1      51.190  14.495  16.488  0.00  0.00    +0.238 C 
ENDBRANCH  20  21
BRANCH  23  24
ATOM     24  O   UNL     1      47.168  13.400  16.301  0.00  0.00    -0.304 OA
ATOM     25  C   UNL     1      46.373  12.579  17.160  0.00  0.00    +0.237 C 
ENDBRANCH  23  24
BRANCH   7   8
ATOM      8  O   UNL     1      51.557  20.646  18.478  0.00  0.00    -0.269 OA
BRANCH   8   9
ATOM      9  C   UNL     1      52.379  20.772  19.640  0.00  0.00    +0.391 C 
BRANCH   9  10
ATOM     10  O   UNL     1      53.011  22.054  19.640  0.00  0.00    -0.589 OA
ATOM     11  H   UNL     1      53.697  22.154  20.313  0.00  0.00    +0.398 HD
ENDBRANCH   9  10
ENDBRANCH   8   9
ENDBRANCH   7   8
BRANCH  12  13
ATOM     13  O   UNL     1      50.890  18.171  17.462  0.00  0.00    -0.299 OA
BRANCH  13  14
ATOM     14  C   UNL     1      51.216  18.600  16.139  0.00  0.00    +0.376 C 
BRANCH  14  15
ATOM     15  O   UNL     1      52.531  19.160  16.131  0.00  0.00    -0.579 OA
ATOM     16  H   UNL     1      53.215  18.563  16.463  0.00  0.00    +0.391 HD
ENDBRANCH  14  15
ENDBRANCH  13  14
ENDBRANCH  12  13
TORSDOF 8
ENDMDL
MODEL 2
REMARK VINA RESULT:      -5.5      3.249      6.230
REMARK  Name = ZINC95486345
REMARK  11 active torsions:
REMARK  status: ('A' for Active; 'I' for Inactive)
REMARK    1  A    between atoms: C1_1  and  N1_2
REMARK    2  A    between atoms: C6_7  and  O5_27
REMARK    3  A    between atoms: C7_8  and  O3_24
REMARK    4  A    between atoms: C15_17  and  O2_22
REMARK    5  A    between atoms: C16_18  and  O1_20
REMARK    6  A    between atoms: O1_20  and  C18_21
REMARK    7  A    between atoms: O2_22  and  C19_23
REMARK    8  A    between atoms: O3_24  and  C20_25
REMARK    9  A    between atoms: C20_25  and  O4_26
REMARK   10  A    between atoms: O5_27  and  C21_28
REMARK   11  A    between atoms: C21_28  and  O6_29
REMARK                            x       y       z     vdW  Elec       q    Type
REMARK                         _______ _______ _______ _____ _____    ______ ____
ROOT
ATOM      1  C   UNL     1      47.985  13.360  17.663  0.00  0.00    +0.196 C 
ATOM      2  N   UNL     1      47.080  14.366  18.235  0.00  0.00    -0.535 NA
ATOM      3  C   UNL     1      46.317  13.809  19.353  0.00  0.00    +0.177 C 
ATOM      4  C   UNL     1      45.210  14.760  19.779  0.00  0.00    +0.091 C 
ATOM      5  C   UNL     1      45.639  16.198  19.719  0.00  0.00    -0.022 A 
ATOM      6  C   UNL     1      44.771  17.158  20.230  0.00  0.00    -0.060 A 
ATOM      7  C   UNL     1      45.115  18.498  20.225  0.00  0.00    +0.134 A 
ATOM     12  C   UNL     1      46.339  18.896  19.702  0.00  0.00    +0.063 A 
ATOM     17  C   UNL     1      47.202  17.938  19.172  0.00  0.00    -0.006 A 
ATOM     18  C   UNL     1      48.510  18.340  18.604  0.00  0.00    -0.049 A 
ATOM     19  C   UNL     1      49.053  19.590  18.892  0.00  0.00    +0.009 A 
ATOM     20  C   UNL     1      50.285  19.939  18.365  0.00  0.00    +0.092 A 
ATOM     23  C   UNL     1      50.974  19.043  17.552  0.00  0.00    +0.111 A 
ATOM     26  C   UNL     1      50.427  17.802  17.261  0.00  0.00    -0.034 A 
ATOM     27  C   UNL     1      49.195  17.452  17.778  0.00  0.00    -0.060 A 
ATOM     28  C   UNL     1      48.584  16.117  17.452  0.00  0.00    +0.103 C 
ATOM     29  C   UNL     1      46.852  16.585  19.192  0.00  0.00    -0.090 A 
ATOM     30  C   UNL     1      47.821  15.565  18.654  0.00  0.00    +0.194 C 
ENDROOT
BRANCH  20  21
ATOM     21  O   UNL     1      50.821  21.159  18.640  0.00  0.00    -0.305 OA
ATOM     22  C   UNL     1      51.646  21.257  19.803  0.00  0.00    +0.238 C 
ENDBRANCH  20  21
BRANCH  23  24
ATOM     24  O   UNL     1      52.187  19.385  17.042  0.00  0.00    -0.304 OA
ATOM     25  C   UNL     1      52.219  19.813  15.678  0.00  0.00    +0.237 C 
ENDBRANCH  23  24
BRANCH   7   8
ATOM      8  O   UNL     1      44.256  19.423  20.732  0.00  0.00    -0.269 OA
BRANCH   8   9
ATOM      9  C   UNL     1      42.920  19.415  20.225  0.00  0.00    +0.391 C 
BRANCH   9  10
ATOM     10  O   UNL     1      42.515  20.753  19.928  0.00  0.00    -0.589 OA
ATOM     11  H   UNL     1      41.920  20.824  19.170  0.00  0.00    +0.398 HD
ENDBRANCH   9  10
ENDBRANCH   8   9
ENDBRANCH   7   8
BRANCH  12  13
ATOM     13  O   UNL     1      46.693  20.208  19.706  0.00  0.00    -0.299 OA
BRANCH  13  14
ATOM     14  C   UNL     1      46.033  21.061  18.769  0.00  0.00    +0.376 C 
BRANCH  14  15
ATOM     15  O   UNL     1      45.197  21.983  19.471  0.00  0.00    -0.579 OA
ATOM     16  H   UNL     1      45.507  22.899  19.438  0.00  0.00    +0.391 HD
ENDBRANCH  14  15
ENDBRANCH  13  14
ENDBRANCH  12  13
TORSDOF 8
ENDMDL
MODEL 3
REMARK VINA RESULT:      -5.5      2.594      5.451
REMARK  Name = ZINC95486345
REMARK  11 active torsions:
REMARK  status: ('A' for Active; 'I' for Inactive)
REMARK    1  A    between atoms: C1_1  and  N1_2
REMARK    2  A    between atoms: C6_7  and  O5_27
REMARK    3  A    between atoms: C7_8  and  O3_24
REMARK    4  A    between atoms: C15_17  and  O2_22
REMARK    5  A    between atoms: C16_18  and  O1_20
REMARK    6  A    between atoms: O1_20  and  C18_21
REMARK    7  A    between atoms: O2_22  and  C19_23
REMARK    8  A    between atoms: O3_24  and  C20_25
REMARK    9  A    between atoms: C20_25  and  O4_26
REMARK   10  A    between atoms: O5_27  and  C21_28
REMARK   11  A    between atoms: C21_28  and  O6_29
REMARK                            x       y       z     vdW  Elec       q    Type
REMARK                         _______ _______ _______ _____ _____    ______ ____
ROOT
ATOM      1  C   UNL     1      45.962  13.872  17.905  0.00  0.00    +0.196 C 
ATOM      2  N   UNL     1      47.187  14.681  17.938  0.00  0.00    -0.535 NA
ATOM      3  C   UNL     1      48.115  14.273  16.882  0.00  0.00    +0.177 C 
ATOM      4  C   UNL     1      49.472  14.930  17.072  0.00  0.00    +0.091 C 
ATOM      5  C   UNL     1      49.359  16.347  17.556  0.00  0.00    -0.022 A 
ATOM      6  C   UNL     1      50.521  17.108  17.621  0.00  0.00    -0.060 A 
ATOM      7  C   UNL     1      50.483  18.427  18.038  0.00  0.00    +0.134 A 
ATOM     12  C   UNL     1      49.270  19.002  18.399  0.00  0.00    +0.063 A 
ATOM     17  C   UNL     1      48.107  18.235  18.353  0.00  0.00    -0.006 A 
ATOM     18  C   UNL     1      46.804  18.827  18.740  0.00  0.00    -0.049 A 
ATOM     19  C   UNL     1      46.648  20.208  18.816  0.00  0.00    +0.009 A 
ATOM     20  C   UNL     1      45.418  20.741  19.162  0.00  0.00    +0.092 A 
ATOM     23  C   UNL     1      44.345  19.896  19.431  0.00  0.00    +0.111 A 
ATOM     26  C   UNL     1      44.505  18.520  19.362  0.00  0.00    -0.034 A 
ATOM     27  C   UNL     1      45.732  17.984  19.025  0.00  0.00    -0.060 A 
ATOM     28  C   UNL     1      45.922  16.493  18.967  0.00  0.00    +0.103 C 
ATOM     29  C   UNL     1      48.154  16.908  17.920  0.00  0.00    -0.090 A 
ATOM     30  C   UNL     1      46.876  16.115  17.836  0.00  0.00    +0.194 C 
ENDROOT
BRANCH  20  21
ATOM     21  O   UNL     1      45.259  22.090  19.240  0.00  0.00    -0.305 OA
ATOM     22  C   UNL     1      45.545  22.704  20.499  0.00  0.00    +0.238 C 
ENDBRANCH  20  21
BRANCH  23  24
ATOM     24  O   UNL     1      43.135  20.421  19.764  0.00  0.00    -0.304 OA
ATOM     25  C   UNL     1      42.133  20.436  18.745  0.00  0.00    +0.237 C 
ENDBRANCH  23  24
BRANCH   7   8
ATOM      8  O   UNL     1      51.628  19.158  18.092  0.00  0.00    -0.269 OA
BRANCH   8   9
ATOM      9  C   UNL     1      51.969  19.919  16.931  0.00  0.00    +0.391 C 
BRANCH   9  10
ATOM     10  O   UNL     1      51.738  21.306  17.187  0.00  0.00    -0.589 OA
ATOM     11  H   UNL     1      51.870  21.874  16.416  0.00  0.00    +0.398 HD
ENDBRANCH   9  10
ENDBRANCH   8   9
ENDBRANCH   7   8
BRANCH  12  13
ATOM     13  O   UNL     1      49.219  20.301  18.796  0.00  0.00    -0.299 OA
BRANCH  13  14
ATOM     14  C   UNL     1      49.677  20.595  20.116  0.00  0.00    +0.376 C 
BRANCH  14  15
ATOM     15  O   UNL     1      50.969  21.203  20.048  0.00  0.00    -0.579 OA
ATOM     16  H   UNL     1      51.525  21.034  20.821  0.00  0.00    +0.391 HD
ENDBRANCH  14  15
ENDBRANCH  13  14
ENDBRANCH  12  13
TORSDOF 8
ENDMDL
MODEL 4
REMARK VINA RESULT:      -5.4      3.117      7.009
REMARK  Name = ZINC95486345
REMARK  11 active torsions:
REMARK  status: ('A' for Active; 'I' for Inactive)
REMARK    1  A    between atoms: C1_1  and  N1_2
REMARK    2  A    between atoms: C6_7  and  O5_27
REMARK    3  A    between atoms: C7_8  and  O3_24
REMARK    4  A    between atoms: C15_17  and  O2_22
REMARK    5  A    between atoms: C16_18  and  O1_20
REMARK    6  A    between atoms: O1_20  and  C18_21
REMARK    7  A    between atoms: O2_22  and  C19_23
REMARK    8  A    between atoms: O3_24  and  C20_25
REMARK    9  A    between atoms: C20_25  and  O4_26
REMARK   10  A    between atoms: O5_27  and  C21_28
REMARK   11  A    between atoms: C21_28  and  O6_29
REMARK                            x       y       z     vdW  Elec       q    Type
REMARK                         _______ _______ _______ _____ _____    ______ ____
ROOT
ATOM      1  C   UNL     1      51.386  21.146  18.420  0.00  0.00    +0.196 C 
ATOM      2  N   UNL     1      50.691  19.934  17.968  0.00  0.00    -0.535 NA
ATOM      3  C   UNL     1      51.630  18.826  17.789  0.00  0.00    +0.177 C 
ATOM      4  C   UNL     1      50.959  17.656  17.087  0.00  0.00    +0.091 C 
ATOM      5  C   UNL     1      49.540  17.458  17.537  0.00  0.00    -0.022 A 
ATOM      6  C   UNL     1      48.865  16.329  17.085  0.00  0.00    -0.060 A 
ATOM      7  C   UNL     1      47.563  16.076  17.480  0.00  0.00    +0.134 A 
ATOM     12  C   UNL     1      46.916  16.960  18.334  0.00  0.00    +0.063 A 
ATOM     17  C   UNL     1      47.584  18.102  18.772  0.00  0.00    -0.006 A 
ATOM     18  C   UNL     1      46.910  19.062  19.679  0.00  0.00    -0.049 A 
ATOM     19  C   UNL     1      45.766  18.690  20.380  0.00  0.00    +0.009 A 
ATOM     20  C   UNL     1      45.163  19.596  21.236  0.00  0.00    +0.092 A 
ATOM     23  C   UNL     1      45.700  20.871  21.392  0.00  0.00    +0.111 A 
ATOM     26  C   UNL     1      46.835  21.240  20.687  0.00  0.00    -0.034 A 
ATOM     27  C   UNL     1      47.436  20.344  19.826  0.00  0.00    -0.060 A 
ATOM     28  C   UNL     1      48.656  20.742  19.040  0.00  0.00    +0.103 C 
ATOM     29  C   UNL     1      48.902  18.344  18.378  0.00  0.00    -0.090 A 
ATOM     30  C   UNL     1      49.616  19.562  18.902  0.00  0.00    +0.194 C 
ENDROOT
BRANCH  20  21
ATOM     21  O   UNL     1      44.043  19.241  21.923  0.00  0.00    -0.305 OA
ATOM     22  C   UNL     1      42.867  18.977  21.155  0.00  0.00    +0.238 C 
ENDBRANCH  20  21
BRANCH  23  24
ATOM     24  O   UNL     1      45.110  21.757  22.238  0.00  0.00    -0.304 OA
ATOM     25  C   UNL     1      44.739  23.025  21.694  0.00  0.00    +0.237 C 
ENDBRANCH  23  24
BRANCH   7   8
ATOM      8  O   UNL     1      46.920  14.965  17.032  0.00  0.00    -0.269 OA
BRANCH   8   9
ATOM      9  C   UNL     1      47.720  13.958  16.408  0.00  0.00    +0.391 C 
BRANCH   9  10
ATOM     10  O   UNL     1      47.272  13.758  15.065  0.00  0.00    -0.589 OA
ATOM     11  H   UNL     1      47.883  14.091  14.394  0.00  0.00    +0.398 HD
ENDBRANCH   9  10
ENDBRANCH   8   9
ENDBRANCH   7   8
BRANCH  12  13
ATOM     13  O   UNL     1      45.642  16.713  18.739  0.00  0.00    -0.299 OA
BRANCH  13  14
ATOM     14  C   UNL     1      45.463  15.714  19.744  0.00  0.00    +0.376 C 
BRANCH  14  15
ATOM     15  O   UNL     1      45.056  14.490  19.130  0.00  0.00    -0.579 OA
ATOM     16  H   UNL     1      44.382  14.598  18.444  0.00  0.00    +0.391 HD
ENDBRANCH  14  15
ENDBRANCH  13  14
ENDBRANCH  12  13
TORSDOF 8
ENDMDL
MODEL 5
REMARK VINA RESULT:      -5.2      3.053      4.991
REMARK  Name = ZINC95486345
REMARK  11 active torsions:
REMARK  status: ('A' for Active; 'I' for Inactive)
REMARK    1  A    between atoms: C1_1  and  N1_2
REMARK    2  A    between atoms: C6_7  and  O5_27
REMARK    3  A    between atoms: C7_8  and  O3_24
REMARK    4  A    between atoms: C15_17  and  O2_22
REMARK    5  A    between atoms: C16_18  and  O1_20
REMARK    6  A    between atoms: O1_20  and  C18_21
REMARK    7  A    between atoms: O2_22  and  C19_23
REMARK    8  A    between atoms: O3_24  and  C20_25
REMARK    9  A    between atoms: C20_25  and  O4_26
REMARK   10  A    between atoms: O5_27  and  C21_28
REMARK   11  A    between atoms: C21_28  and  O6_29
REMARK                            x       y       z     vdW  Elec       q    Type
REMARK                         _______ _______ _______ _____ _____    ______ ____
ROOT
ATOM      1  C   UNL     1      52.597  19.210  18.036  0.00  0.00    +0.196 C 
ATOM      2  N   UNL     1      51.207  19.407  18.469  0.00  0.00    -0.535 NA
ATOM      3  C   UNL     1      50.784  20.793  18.263  0.00  0.00    +0.177 C 
ATOM      4  C   UNL     1      49.447  21.056  18.937  0.00  0.00    +0.091 C 
ATOM      5  C   UNL     1      48.509  19.890  18.819  0.00  0.00    -0.022 A 
ATOM      6  C   UNL     1      47.200  20.060  19.259  0.00  0.00    -0.060 A 
ATOM      7  C   UNL     1      46.279  19.032  19.159  0.00  0.00    +0.134 A 
ATOM     12  C   UNL     1      46.662  17.812  18.616  0.00  0.00    +0.063 A 
ATOM     17  C   UNL     1      47.978  17.633  18.192  0.00  0.00    -0.006 A 
ATOM     18  C   UNL     1      48.409  16.338  17.615  0.00  0.00    -0.049 A 
ATOM     19  C   UNL     1      47.470  15.414  17.165  0.00  0.00    +0.009 A 
ATOM     20  C   UNL     1      47.894  14.218  16.613  0.00  0.00    +0.092 A 
ATOM     23  C   UNL     1      49.255  13.943  16.510  0.00  0.00    +0.111 A 
ATOM     26  C   UNL     1      50.189  14.862  16.966  0.00  0.00    -0.034 A 
ATOM     27  C   UNL     1      49.770  16.053  17.525  0.00  0.00    -0.060 A 
ATOM     28  C   UNL     1      50.774  17.047  18.041  0.00  0.00    +0.103 C 
ATOM     29  C   UNL     1      48.898  18.680  18.286  0.00  0.00    -0.090 A 
ATOM     30  C   UNL     1      50.302  18.475  17.780  0.00  0.00    +0.194 C 
ENDROOT
BRANCH  20  21
ATOM     21  O   UNL     1      46.981  13.310  16.173  0.00  0.00    -0.305 OA
ATOM     22  C   UNL     1      46.345  12.498  17.163  0.00  0.00    +0.238 C 
ENDBRANCH  20  21
BRANCH  23  24
ATOM     24  O   UNL     1      49.671  12.770  15.961  0.00  0.00    -0.304 OA
ATOM     25  C   UNL     1      50.280  12.839  14.670  0.00  0.00    +0.237 C 
ENDBRANCH  23  24
BRANCH   7   8
ATOM      8  O   UNL     1      45.003  19.217  19.590  0.00  0.00    -0.269 OA
BRANCH   8   9
ATOM      9  C   UNL     1      44.086  19.814  18.670  0.00  0.00    +0.391 C 
BRANCH   9  10
ATOM     10  O   UNL     1      43.907  21.192  19.003  0.00  0.00    -0.589 OA
ATOM     11  H   UNL     1      43.171  21.357  19.608  0.00  0.00    +0.398 HD
ENDBRANCH   9  10
ENDBRANCH   8   9
ENDBRANCH   7   8
BRANCH  12  13
ATOM     13  O   UNL     1      45.761  16.801  18.499  0.00  0.00    -0.299 OA
BRANCH  13  14
ATOM     14  C   UNL     1      45.288  16.211  19.710  0.00  0.00    +0.376 C 
BRANCH  14  15
ATOM     15  O   UNL     1      44.991  14.831  19.483  0.00  0.00    -0.579 OA
ATOM     16  H   UNL     1      44.184  14.682  18.971  0.00  0.00    +0.391 HD
ENDBRANCH  14  15
ENDBRANCH  13  14
ENDBRANCH  12  13
TORSDOF 8
ENDMDL
MODEL 6
REMARK VINA RESULT:      -5.2      3.239      6.010
REMARK  Name = ZINC95486345
REMARK  11 active torsions:
REMARK  status: ('A' for Active; 'I' for Inactive)
REMARK    1  A    between atoms: C1_1  and  N1_2
REMARK    2  A    between atoms: C6_7  and  O5_27
REMARK    3  A    between atoms: C7_8  and  O3_24
REMARK    4  A    between atoms: C15_17  and  O2_22
REMARK    5  A    between atoms: C16_18  and  O1_20
REMARK    6  A    between atoms: O1_20  and  C18_21
REMARK    7  A    between atoms: O2_22  and  C19_23
REMARK    8  A    between atoms: O3_24  and  C20_25
REMARK    9  A    between atoms: C20_25  and  O4_26
REMARK   10  A    between atoms: O5_27  and  C21_28
REMARK   11  A    between atoms: C21_28  and  O6_29
REMARK                            x       y       z     vdW  Elec       q    Type
REMARK                         _______ _______ _______ _____ _____    ______ ____
ROOT
ATOM      1  C   UNL     1      46.602  15.745  16.996  0.00  0.00    +0.196 C 
ATOM      2  N   UNL     1      47.564  16.595  17.709  0.00  0.00    -0.535 NA
ATOM      3  C   UNL     1      48.869  16.580  17.048  0.00  0.00    +0.177 C 
ATOM      4  C   UNL     1      49.923  17.250  17.916  0.00  0.00    +0.091 C 
ATOM      5  C   UNL     1      49.387  18.452  18.639  0.00  0.00    -0.022 A 
ATOM      6  C   UNL     1      50.289  19.243  19.344  0.00  0.00    -0.060 A 
ATOM      7  C   UNL     1      49.865  20.377  20.013  0.00  0.00    +0.134 A 
ATOM     12  C   UNL     1      48.522  20.733  19.987  0.00  0.00    +0.063 A 
ATOM     17  C   UNL     1      47.614  19.932  19.297  0.00  0.00    -0.006 A 
ATOM     18  C   UNL     1      46.176  20.289  19.261  0.00  0.00    -0.049 A 
ATOM     19  C   UNL     1      45.757  21.574  19.597  0.00  0.00    +0.009 A 
ATOM     20  C   UNL     1      44.411  21.892  19.539  0.00  0.00    +0.092 A 
ATOM     23  C   UNL     1      43.484  20.930  19.146  0.00  0.00    +0.111 A 
ATOM     26  C   UNL     1      43.904  19.650  18.819  0.00  0.00    -0.034 A 
ATOM     27  C   UNL     1      45.244  19.325  18.882  0.00  0.00    -0.060 A 
ATOM     28  C   UNL     1      45.707  17.933  18.549  0.00  0.00    +0.103 C 
ATOM     29  C   UNL     1      48.053  18.795  18.614  0.00  0.00    -0.090 A 
ATOM     30  C   UNL     1      47.058  17.970  17.838  0.00  0.00    +0.194 C 
ENDROOT
BRANCH  20  21
ATOM     21  O   UNL     1      43.993  23.145  19.869  0.00  0.00    -0.305 OA
ATOM     22  C   UNL     1      44.469  24.221  19.057  0.00  0.00    +0.238 C 
ENDBRANCH  20  21
BRANCH  23  24
ATOM     24  O   UNL     1      42.163  21.247  19.083  0.00  0.00    -0.304 OA
ATOM     25  C   UNL     1      41.298  20.298  18.456  0.00  0.00    +0.237 C 
ENDBRANCH  23  24
BRANCH   7   8
ATOM      8  O   UNL     1      50.760  21.141  20.695  0.00  0.00    -0.269 OA
BRANCH   8   9
ATOM      9  C   UNL     1      52.032  21.356  20.079  0.00  0.00    +0.391 C 
BRANCH   9  10
ATOM     10  O   UNL     1      52.587  22.585  20.551  0.00  0.00    -0.589 OA
ATOM     11  H   UNL     1      53.213  22.994  19.938  0.00  0.00    +0.398 HD
ENDBRANCH   9  10
ENDBRANCH   8   9
ENDBRANCH   7   8
BRANCH  12  13
ATOM     13  O   UNL     1      48.097  21.853  20.629  0.00  0.00    -0.299 OA
BRANCH  13  14
ATOM     14  C   UNL     1      47.900  21.757  22.041  0.00  0.00    +0.376 C 
BRANCH  14  15
ATOM     15  O   UNL     1      47.089  22.847  22.483  0.00  0.00    -0.579 OA
ATOM     16  H   UNL     1      47.580  23.540  22.946  0.00  0.00    +0.391 HD
ENDBRANCH  14  15
ENDBRANCH  13  14
ENDBRANCH  12  13
TORSDOF 8
ENDMDL
MODEL 7
REMARK VINA RESULT:      -4.8     20.685     22.223
REMARK  Name = ZINC95486345
REMARK  11 active torsions:
REMARK  status: ('A' for Active; 'I' for Inactive)
REMARK    1  A    between atoms: C1_1  and  N1_2
REMARK    2  A    between atoms: C6_7  and  O5_27
REMARK    3  A    between atoms: C7_8  and  O3_24
REMARK    4  A    between atoms: C15_17  and  O2_22
REMARK    5  A    between atoms: C16_18  and  O1_20
REMARK    6  A    between atoms: O1_20  and  C18_21
REMARK    7  A    between atoms: O2_22  and  C19_23
REMARK    8  A    between atoms: O3_24  and  C20_25
REMARK    9  A    between atoms: C20_25  and  O4_26
REMARK   10  A    between atoms: O5_27  and  C21_28
REMARK   11  A    between atoms: C21_28  and  O6_29
REMARK                            x       y       z     vdW  Elec       q    Type
REMARK                         _______ _______ _______ _____ _____    ______ ____
ROOT
ATOM      1  C   UNL     1      51.753  33.232  -1.377  0.00  0.00    +0.196 C 
ATOM      2  N   UNL     1      51.685  33.409   0.079  0.00  0.00    -0.535 NA
ATOM      3  C   UNL     1      50.333  33.150   0.576  0.00  0.00    +0.177 C 
ATOM      4  C   UNL     1      50.202  33.574   2.030  0.00  0.00    +0.091 C 
ATOM      5  C   UNL     1      51.438  33.269   2.828  0.00  0.00    -0.022 A 
ATOM      6  C   UNL     1      51.390  33.466   4.204  0.00  0.00    -0.060 A 
ATOM      7  C   UNL     1      52.486  33.184   4.999  0.00  0.00    +0.134 A 
ATOM     12  C   UNL     1      53.653  32.700   4.421  0.00  0.00    +0.063 A 
ATOM     17  C   UNL     1      53.710  32.520   3.040  0.00  0.00    -0.006 A 
ATOM     18  C   UNL     1      54.946  32.011   2.401  0.00  0.00    -0.049 A 
ATOM     19  C   UNL     1      55.929  31.383   3.161  0.00  0.00    +0.009 A 
ATOM     20  C   UNL     1      57.069  30.899   2.542  0.00  0.00    +0.092 A 
ATOM     23  C   UNL     1      57.227  31.041   1.166  0.00  0.00    +0.111 A 
ATOM     26  C   UNL     1      56.250  31.673   0.413  0.00  0.00    -0.034 A 
ATOM     27  C   UNL     1      55.115  32.165   1.027  0.00  0.00    -0.060 A 
ATOM     28  C   UNL     1      54.058  32.871   0.222  0.00  0.00    +0.103 C 
ATOM     29  C   UNL     1      52.594  32.797   2.246  0.00  0.00    -0.090 A 
ATOM     30  C   UNL     1      52.666  32.551   0.761  0.00  0.00    +0.194 C 
ENDROOT
BRANCH  20  21
ATOM     21  O   UNL     1      58.035  30.286   3.278  0.00  0.00    -0.305 OA
ATOM     22  C   UNL     1      58.829  31.118   4.127  0.00  0.00    +0.238 C 
ENDBRANCH  20  21
BRANCH  23  24
ATOM     24  O   UNL     1      58.344  30.558   0.559  0.00  0.00    -0.304 OA
ATOM     25  C   UNL     1      58.214  29.325  -0.152  0.00  0.00    +0.237 C 
ENDBRANCH  23  24
BRANCH   7   8
ATOM      8  O   UNL     1      52.420  33.379   6.344  0.00  0.00    -0.269 OA
BRANCH   8   9
ATOM      9  C   UNL     1      52.006  34.671   6.793  0.00  0.00    +0.391 C 
BRANCH   9  10
ATOM     10  O   UNL     1      52.835  35.085   7.881  0.00  0.00    -0.589 OA
ATOM     11  H   UNL     1      53.307  35.914   7.721  0.00  0.00    +0.398 HD
ENDBRANCH   9  10
ENDBRANCH   8   9
ENDBRANCH   7   8
BRANCH  12  13
ATOM     13  O   UNL     1      54.731  32.406   5.195  0.00  0.00    -0.299 OA
BRANCH  13  14
ATOM     14  C   UNL     1      55.467  33.508   5.727  0.00  0.00    +0.376 C 
BRANCH  14  15
ATOM     15  O   UNL     1      55.218  33.613   7.130  0.00  0.00    -0.579 OA
ATOM     16  H   UNL     1      55.337  34.505   7.486  0.00  0.00    +0.391 HD
ENDBRANCH  14  15
ENDBRANCH  13  14
ENDBRANCH  12  13
TORSDOF 8
ENDMDL
MODEL 8
REMARK VINA RESULT:      -4.8      2.901      4.747
REMARK  Name = ZINC95486345
REMARK  11 active torsions:
REMARK  status: ('A' for Active; 'I' for Inactive)
REMARK    1  A    between atoms: C1_1  and  N1_2
REMARK    2  A    between atoms: C6_7  and  O5_27
REMARK    3  A    between atoms: C7_8  and  O3_24
REMARK    4  A    between atoms: C15_17  and  O2_22
REMARK    5  A    between atoms: C16_18  and  O1_20
REMARK    6  A    between atoms: O1_20  and  C18_21
REMARK    7  A    between atoms: O2_22  and  C19_23
REMARK    8  A    between atoms: O3_24  and  C20_25
REMARK    9  A    between atoms: C20_25  and  O4_26
REMARK   10  A    between atoms: O5_27  and  C21_28
REMARK   11  A    between atoms: C21_28  and  O6_29
REMARK                            x       y       z     vdW  Elec       q    Type
REMARK                         _______ _______ _______ _____ _____    ______ ____
ROOT
ATOM      1  C   UNL     1      52.223  18.529  15.656  0.00  0.00    +0.196 C 
ATOM      2  N   UNL     1      51.554  19.099  16.832  0.00  0.00    -0.535 NA
ATOM      3  C   UNL     1      51.420  20.551  16.708  0.00  0.00    +0.177 C 
ATOM      4  C   UNL     1      50.961  21.166  18.021  0.00  0.00    +0.091 C 
ATOM      5  C   UNL     1      49.950  20.310  18.730  0.00  0.00    -0.022 A 
ATOM      6  C   UNL     1      49.337  20.831  19.864  0.00  0.00    -0.060 A 
ATOM      7  C   UNL     1      48.380  20.104  20.550  0.00  0.00    +0.134 A 
ATOM     12  C   UNL     1      48.028  18.835  20.107  0.00  0.00    +0.063 A 
ATOM     17  C   UNL     1      48.655  18.303  18.982  0.00  0.00    -0.006 A 
ATOM     18  C   UNL     1      48.299  16.949  18.495  0.00  0.00    -0.049 A 
ATOM     19  C   UNL     1      47.122  16.334  18.913  0.00  0.00    +0.009 A 
ATOM     20  C   UNL     1      46.799  15.076  18.432  0.00  0.00    +0.092 A 
ATOM     23  C   UNL     1      47.649  14.434  17.536  0.00  0.00    +0.111 A 
ATOM     26  C   UNL     1      48.824  15.047  17.128  0.00  0.00    -0.034 A 
ATOM     27  C   UNL     1      49.155  16.297  17.610  0.00  0.00    -0.060 A 
ATOM     28  C   UNL     1      50.437  16.962  17.189  0.00  0.00    +0.103 C 
ATOM     29  C   UNL     1      49.611  19.050  18.288  0.00  0.00    -0.090 A 
ATOM     30  C   UNL     1      50.242  18.470  17.049  0.00  0.00    +0.194 C 
ENDROOT
BRANCH  20  21
ATOM     21  O   UNL     1      45.651  14.467  18.838  0.00  0.00    -0.305 OA
ATOM     22  C   UNL     1      45.209  14.739  20.169  0.00  0.00    +0.238 C 
ENDBRANCH  20  21
BRANCH  23  24
ATOM     24  O   UNL     1      47.326  13.202  17.060  0.00  0.00    -0.304 OA
ATOM     25  C   UNL     1      47.537  12.970  15.665  0.00  0.00    +0.237 C 
ENDBRANCH  23  24
BRANCH   7   8
ATOM      8  O   UNL     1      47.788  20.630  21.655  0.00  0.00    -0.269 OA
BRANCH   8   9
ATOM      9  C   UNL     1      47.353  21.990  21.574  0.00  0.00    +0.391 C 
BRANCH   9  10
ATOM     10  O   UNL     1      46.019  22.033  21.062  0.00  0.00    -0.589 OA
ATOM     11  H   UNL     1      45.934  22.516  20.229  0.00  0.00    +0.398 HD
ENDBRANCH   9  10
ENDBRANCH   8   9
ENDBRANCH   7   8
BRANCH  12  13
ATOM     13  O   UNL     1      47.079  18.118  20.766  0.00  0.00    -0.299 OA
BRANCH  13  14
ATOM     14  C   UNL     1      45.727  18.564  20.643  0.00  0.00    +0.376 C 
BRANCH  14  15
ATOM     15  O   UNL     1      45.292  19.112  21.889  0.00  0.00    -0.579 OA
ATOM     16  H   UNL     1      45.270  18.472  22.614  0.00  0.00    +0.391 HD
ENDBRANCH  14  15
ENDBRANCH  13  14
ENDBRANCH  12  13
TORSDOF 8
ENDMDL
MODEL 9
REMARK VINA RESULT:      -4.7      3.438      5.433
REMARK  Name = ZINC95486345
REMARK  11 active torsions:
REMARK  status: ('A' for Active; 'I' for Inactive)
REMARK    1  A    between atoms: C1_1  and  N1_2
REMARK    2  A    between atoms: C6_7  and  O5_27
REMARK    3  A    between atoms: C7_8  and  O3_24
REMARK    4  A    between atoms: C15_17  and  O2_22
REMARK    5  A    between atoms: C16_18  and  O1_20
REMARK    6  A    between atoms: O1_20  and  C18_21
REMARK    7  A    between atoms: O2_22  and  C19_23
REMARK    8  A    between atoms: O3_24  and  C20_25
REMARK    9  A    between atoms: C20_25  and  O4_26
REMARK   10  A    between atoms: O5_27  and  C21_28
REMARK   11  A    between atoms: C21_28  and  O6_29
REMARK                            x       y       z     vdW  Elec       q    Type
REMARK                         _______ _______ _______ _____ _____    ______ ____
ROOT
ATOM      1  C   UNL     1      52.243  18.739  18.120  0.00  0.00    +0.196 C 
ATOM      2  N   UNL     1      50.851  18.550  18.550  0.00  0.00    -0.535 NA
ATOM      3  C   UNL     1      50.135  19.826  18.586  0.00  0.00    +0.177 C 
ATOM      4  C   UNL     1      48.784  19.668  19.264  0.00  0.00    +0.091 C 
ATOM      5  C   UNL     1      48.118  18.368  18.917  0.00  0.00    -0.022 A 
ATOM      6  C   UNL     1      46.811  18.169  19.349  0.00  0.00    -0.060 A 
ATOM      7  C   UNL     1      46.133  17.003  19.044  0.00  0.00    +0.134 A 
ATOM     12  C   UNL     1      46.762  16.013  18.299  0.00  0.00    +0.063 A 
ATOM     17  C   UNL     1      48.078  16.201  17.881  0.00  0.00    -0.006 A 
ATOM     18  C   UNL     1      48.770  15.156  17.091  0.00  0.00    -0.049 A 
ATOM     19  C   UNL     1      48.045  14.148  16.460  0.00  0.00    +0.009 A 
ATOM     20  C   UNL     1      48.710  13.191  15.712  0.00  0.00    +0.092 A 
ATOM     23  C   UNL     1      50.096  13.240  15.594  0.00  0.00    +0.111 A 
ATOM     26  C   UNL     1      50.816  14.240  16.229  0.00  0.00    -0.034 A 
ATOM     27  C   UNL     1      50.159  15.192  16.983  0.00  0.00    -0.060 A 
ATOM     28  C   UNL     1      50.932  16.269  17.693  0.00  0.00    +0.103 C 
ATOM     29  C   UNL     1      48.751  17.387  18.184  0.00  0.00    -0.090 A 
ATOM     30  C   UNL     1      50.158  17.585  17.682  0.00  0.00    +0.194 C 
ENDROOT
BRANCH  20  21
ATOM     21  O   UNL     1      48.008  12.203  15.095  0.00  0.00    -0.305 OA
ATOM     22  C   UNL     1      46.975  11.570  15.853  0.00  0.00    +0.238 C 
ENDBRANCH  20  21
BRANCH  23  24
ATOM     24  O   UNL     1      50.747  12.304  14.852  0.00  0.00    -0.304 OA
ATOM     25  C   UNL     1      51.090  12.661  13.512  0.00  0.00    +0.237 C 
ENDBRANCH  23  24
BRANCH   7   8
ATOM      8  O   UNL     1      44.854  16.826  19.471  0.00  0.00    -0.269 OA
BRANCH   8   9
ATOM      9  C   UNL     1      44.627  16.880  20.881  0.00  0.00    +0.391 C 
BRANCH   9  10
ATOM     10  O   UNL     1      45.463  15.923  21.535  0.00  0.00    -0.589 OA
ATOM     11  H   UNL     1      44.991  15.341  22.145  0.00  0.00    +0.398 HD
ENDBRANCH   9  10
ENDBRANCH   8   9
ENDBRANCH   7   8
BRANCH  12  13
ATOM     13  O   UNL     1      46.099  14.869  17.981  0.00  0.00    -0.299 OA
BRANCH  13  14
ATOM     14  C   UNL     1      46.090  13.831  18.962  0.00  0.00    +0.376 C 
BRANCH  14  15
ATOM     15  O   UNL     1      44.756  13.641  19.440  0.00  0.00    -0.579 OA
ATOM     16  H   UNL     1      44.252  14.460  19.536  0.00  0.00    +0.391 HD
ENDBRANCH  14  15
ENDBRANCH  13  14
ENDBRANCH  12  13
TORSDOF 8
ENDMDL
