MODEL 1
REMARK VINA RESULT:      -6.0      0.000      0.000
REMARK  Name = ZINC14435101
REMARK  8 active torsions:
REMARK  status: ('A' for Active; 'I' for Inactive)
REMARK    1  A    between atoms: C1_1  and  O1_2
REMARK    2  A    between atoms: O1_2  and  C2_3
REMARK    3  A    between atoms: C6_7  and  O3_11
REMARK    4  A    between atoms: C7_8  and  O2_9
REMARK    5  A    between atoms: O2_9  and  C8_10
REMARK    6  A    between atoms: C9_12  and  O8_29
REMARK    7  A    between atoms: C12_15  and  C13_16
REMARK    8  A    between atoms: O8_29  and  C22_30
REMARK                            x       y       z     vdW  Elec       q    Type
REMARK                         _______ _______ _______ _____ _____    ______ ____
ROOT
ATOM      3  C   UNL     1      46.824  14.733  17.649  0.00  0.00    +0.144 A 
ATOM      4  C   UNL     1      46.564  15.971  18.190  0.00  0.00    -0.049 A 
ATOM      5  C   UNL     1      47.581  16.935  18.252  0.00  0.00    +0.011 A 
ATOM      6  C   UNL     1      48.871  16.624  17.758  0.00  0.00    -0.088 A 
ATOM      7  C   UNL     1      49.897  17.592  17.820  0.00  0.00    +0.164 A 
ATOM     10  C   UNL     1      49.648  18.819  18.353  0.00  0.00    -0.147 A 
ATOM     11  C   UNL     1      48.373  19.152  18.851  0.00  0.00    -0.155 A 
ATOM     12  C   UNL     1      48.430  20.533  19.352  0.00  0.00    +0.521 C 
ATOM     13  O   UNL     1      49.662  21.042  19.182  0.00  0.00    -0.315 OA
ATOM     14  O   UNL     1      47.495  21.130  19.850  0.00  0.00    -0.432 OA
ATOM     15  C   UNL     1      50.511  20.040  18.558  0.00  0.00    +0.340 C 
ATOM     16  C   UNL     1      49.116  15.352  17.210  0.00  0.00    +0.146 A 
ATOM     19  C   UNL     1      47.336  18.214  18.803  0.00  0.00    +0.054 A 
ATOM     29  C   UNL     1      48.099  14.419  17.165  0.00  0.00    +0.067 A 
ENDROOT
BRANCH  19  20
ATOM     20  C   UNL     1      45.996  18.558  19.324  0.00  0.00    -0.055 A 
ATOM     21  C   UNL     1      45.660  18.257  20.646  0.00  0.00    +0.053 A 
ATOM     22  C   UNL     1      44.411  18.579  21.131  0.00  0.00    +0.041 A 
ATOM     23  C   UNL     1      43.482  19.201  20.309  0.00  0.00    +0.046 A 
ATOM     24  C   UNL     1      43.811  19.505  18.988  0.00  0.00    +0.038 A 
ATOM     25  O   UNL     1      42.737  20.108  18.398  0.00  0.00    -0.305 OA
ATOM     26  C   UNL     1      41.613  19.802  19.244  0.00  0.00    +0.434 C 
ATOM     27  O   UNL     1      42.204  19.616  20.544  0.00  0.00    -0.306 OA
ATOM     28  C   UNL     1      45.065  19.190  18.498  0.00  0.00    +0.076 A 
ENDBRANCH  19  20
BRANCH   3   2
ATOM      1  C   UNL     1      45.406  13.234  18.830  0.00  0.00    +0.250 C 
ATOM      2  O   UNL     1      45.835  13.802  17.591  0.00  0.00    -0.297 OA
ENDBRANCH   3   2
BRANCH   7   8
ATOM      8  O   UNL     1      51.136  17.299  17.347  0.00  0.00    -0.316 OA
ATOM      9  C   UNL     1      51.573  18.010  16.187  0.00  0.00    +0.234 C 
ENDBRANCH   7   8
BRANCH  16  17
ATOM     17  O   UNL     1      50.350  15.040  16.730  0.00  0.00    -0.464 OA
ATOM     18  H   UNL     1      50.636  15.594  15.991  0.00  0.00    +0.392 HD
ENDBRANCH  16  17
BRANCH  29  30
ATOM     30  O   UNL     1      48.337  13.187  16.640  0.00  0.00    -0.318 OA
ATOM     31  C   UNL     1      48.047  13.005  15.253  0.00  0.00    +0.236 C 
ENDBRANCH  29  30
TORSDOF 5
ENDMDL
MODEL 2
REMARK VINA RESULT:      -5.8      1.307      4.736
REMARK  Name = ZINC14435101
REMARK  8 active torsions:
REMARK  status: ('A' for Active; 'I' for Inactive)
REMARK    1  A    between atoms: C1_1  and  O1_2
REMARK    2  A    between atoms: O1_2  and  C2_3
REMARK    3  A    between atoms: C6_7  and  O3_11
REMARK    4  A    between atoms: C7_8  and  O2_9
REMARK    5  A    between atoms: O2_9  and  C8_10
REMARK    6  A    between atoms: C9_12  and  O8_29
REMARK    7  A    between atoms: C12_15  and  C13_16
REMARK    8  A    between atoms: O8_29  and  C22_30
REMARK                            x       y       z     vdW  Elec       q    Type
REMARK                         _______ _______ _______ _____ _____    ______ ____
ROOT
ATOM      3  C   UNL     1      50.286  19.474  18.084  0.00  0.00    +0.144 A 
ATOM      4  C   UNL     1      49.115  18.863  18.469  0.00  0.00    -0.049 A 
ATOM      5  C   UNL     1      48.907  17.506  18.179  0.00  0.00    +0.011 A 
ATOM      6  C   UNL     1      49.905  16.776  17.489  0.00  0.00    -0.088 A 
ATOM      7  C   UNL     1      49.696  15.411  17.195  0.00  0.00    +0.164 A 
ATOM     10  C   UNL     1      48.542  14.798  17.572  0.00  0.00    -0.147 A 
ATOM     11  C   UNL     1      47.534  15.504  18.258  0.00  0.00    -0.155 A 
ATOM     12  C   UNL     1      46.427  14.571  18.520  0.00  0.00    +0.521 C 
ATOM     13  O   UNL     1      46.716  13.354  18.030  0.00  0.00    -0.315 OA
ATOM     14  O   UNL     1      45.397  14.860  19.097  0.00  0.00    -0.432 OA
ATOM     15  C   UNL     1      48.030  13.387  17.409  0.00  0.00    +0.340 C 
ATOM     16  C   UNL     1      51.095  17.420  17.104  0.00  0.00    +0.146 A 
ATOM     19  C   UNL     1      47.711  16.857  18.564  0.00  0.00    +0.054 A 
ATOM     29  C   UNL     1      51.273  18.757  17.397  0.00  0.00    +0.067 A 
ENDROOT
BRANCH  19  20
ATOM     20  C   UNL     1      46.657  17.602  19.285  0.00  0.00    -0.055 A 
ATOM     21  C   UNL     1      46.647  17.627  20.682  0.00  0.00    +0.053 A 
ATOM     22  C   UNL     1      45.665  18.322  21.353  0.00  0.00    +0.041 A 
ATOM     23  C   UNL     1      44.681  18.998  20.646  0.00  0.00    +0.046 A 
ATOM     24  C   UNL     1      44.684  18.978  19.251  0.00  0.00    +0.038 A 
ATOM     25  O   UNL     1      43.624  19.711  18.802  0.00  0.00    -0.305 OA
ATOM     26  C   UNL     1      42.740  19.841  19.931  0.00  0.00    +0.434 C 
ATOM     27  O   UNL     1      43.620  19.745  21.067  0.00  0.00    -0.306 OA
ATOM     28  C   UNL     1      45.671  18.287  18.573  0.00  0.00    +0.076 A 
ENDBRANCH  19  20
BRANCH   3   2
ATOM      1  C   UNL     1      51.120  21.095  19.610  0.00  0.00    +0.250 C 
ATOM      2  O   UNL     1      50.485  20.788  18.367  0.00  0.00    -0.297 OA
ENDBRANCH   3   2
BRANCH   7   8
ATOM      8  O   UNL     1      50.651  14.706  16.534  0.00  0.00    -0.316 OA
ATOM      9  C   UNL     1      51.344  13.699  17.275  0.00  0.00    +0.234 C 
ENDBRANCH   7   8
BRANCH  16  17
ATOM     17  O   UNL     1      52.062  16.731  16.442  0.00  0.00    -0.464 OA
ATOM     18  H   UNL     1      52.818  16.488  16.994  0.00  0.00    +0.392 HD
ENDBRANCH  16  17
BRANCH  29  30
ATOM     30  O   UNL     1      52.421  19.383  17.020  0.00  0.00    -0.318 OA
ATOM     31  C   UNL     1      52.385  20.130  15.804  0.00  0.00    +0.236 C 
ENDBRANCH  29  30
TORSDOF 5
ENDMDL
MODEL 3
REMARK VINA RESULT:      -5.5      2.010      4.758
REMARK  Name = ZINC14435101
REMARK  8 active torsions:
REMARK  status: ('A' for Active; 'I' for Inactive)
REMARK    1  A    between atoms: C1_1  and  O1_2
REMARK    2  A    between atoms: O1_2  and  C2_3
REMARK    3  A    between atoms: C6_7  and  O3_11
REMARK    4  A    between atoms: C7_8  and  O2_9
REMARK    5  A    between atoms: O2_9  and  C8_10
REMARK    6  A    between atoms: C9_12  and  O8_29
REMARK    7  A    between atoms: C12_15  and  C13_16
REMARK    8  A    between atoms: O8_29  and  C22_30
REMARK                            x       y       z     vdW  Elec       q    Type
REMARK                         _______ _______ _______ _____ _____    ______ ____
ROOT
ATOM      3  C   UNL     1      50.388  19.880  18.197  0.00  0.00    +0.144 A 
ATOM      4  C   UNL     1      49.139  19.780  18.764  0.00  0.00    -0.049 A 
ATOM      5  C   UNL     1      48.481  18.542  18.791  0.00  0.00    +0.011 A 
ATOM      6  C   UNL     1      49.108  17.402  18.231  0.00  0.00    -0.088 A 
ATOM      7  C   UNL     1      48.446  16.155  18.257  0.00  0.00    +0.164 A 
ATOM     10  C   UNL     1      47.211  16.047  18.816  0.00  0.00    -0.147 A 
ATOM     11  C   UNL     1      46.566  17.166  19.378  0.00  0.00    -0.155 A 
ATOM     12  C   UNL     1      45.262  16.725  19.894  0.00  0.00    +0.521 C 
ATOM     13  O   UNL     1      45.091  15.410  19.671  0.00  0.00    -0.315 OA
ATOM     14  O   UNL     1      44.451  17.446  20.443  0.00  0.00    -0.432 OA
ATOM     15  C   UNL     1      46.265  14.884  18.994  0.00  0.00    +0.340 C 
ATOM     16  C   UNL     1      50.385  17.527  17.655  0.00  0.00    +0.146 A 
ATOM     19  C   UNL     1      47.196  18.415  19.369  0.00  0.00    +0.054 A 
ATOM     29  C   UNL     1      51.010  18.758  17.637  0.00  0.00    +0.067 A 
ENDROOT
BRANCH  19  20
ATOM     20  C   UNL     1      46.524  19.593  19.959  0.00  0.00    -0.055 A 
ATOM     21  C   UNL     1      46.589  19.819  21.336  0.00  0.00    +0.053 A 
ATOM     22  C   UNL     1      45.963  20.918  21.885  0.00  0.00    +0.041 A 
ATOM     23  C   UNL     1      45.265  21.801  21.074  0.00  0.00    +0.046 A 
ATOM     24  C   UNL     1      45.196  21.581  19.698  0.00  0.00    +0.038 A 
ATOM     25  O   UNL     1      44.460  22.582  19.133  0.00  0.00    -0.305 OA
ATOM     26  C   UNL     1      43.738  23.190  20.220  0.00  0.00    +0.434 C 
ATOM     27  O   UNL     1      44.574  22.940  21.367  0.00  0.00    -0.306 OA
ATOM     28  C   UNL     1      45.827  20.484  19.142  0.00  0.00    +0.076 A 
ENDBRANCH  19  20
BRANCH   3   2
ATOM      1  C   UNL     1      51.810  21.422  19.316  0.00  0.00    +0.250 C 
ATOM      2  O   UNL     1      51.023  21.082  18.173  0.00  0.00    -0.297 OA
ENDBRANCH   3   2
BRANCH   7   8
ATOM      8  O   UNL     1      49.044  15.060  17.721  0.00  0.00    -0.316 OA
ATOM      9  C   UNL     1      48.412  14.465  16.586  0.00  0.00    +0.234 C 
ENDBRANCH   7   8
BRANCH  16  17
ATOM     17  O   UNL     1      51.000  16.441  17.115  0.00  0.00    -0.464 OA
ATOM     18  H   UNL     1      51.965  16.508  17.089  0.00  0.00    +0.392 HD
ENDBRANCH  16  17
BRANCH  29  30
ATOM     30  O   UNL     1      52.243  18.880  17.076  0.00  0.00    -0.318 OA
ATOM     31  C   UNL     1      52.300  19.364  15.733  0.00  0.00    +0.236 C 
ENDBRANCH  29  30
TORSDOF 5
ENDMDL
MODEL 4
REMARK VINA RESULT:      -5.4      2.052      2.669
REMARK  Name = ZINC14435101
REMARK  8 active torsions:
REMARK  status: ('A' for Active; 'I' for Inactive)
REMARK    1  A    between atoms: C1_1  and  O1_2
REMARK    2  A    between atoms: O1_2  and  C2_3
REMARK    3  A    between atoms: C6_7  and  O3_11
REMARK    4  A    between atoms: C7_8  and  O2_9
REMARK    5  A    between atoms: O2_9  and  C8_10
REMARK    6  A    between atoms: C9_12  and  O8_29
REMARK    7  A    between atoms: C12_15  and  C13_16
REMARK    8  A    between atoms: O8_29  and  C22_30
REMARK                            x       y       z     vdW  Elec       q    Type
REMARK                         _______ _______ _______ _____ _____    ______ ____
ROOT
ATOM      3  C   UNL     1      46.265  15.659  19.383  0.00  0.00    +0.144 A 
ATOM      4  C   UNL     1      46.751  16.946  19.416  0.00  0.00    -0.049 A 
ATOM      5  C   UNL     1      47.975  17.247  18.801  0.00  0.00    +0.011 A 
ATOM      6  C   UNL     1      48.705  16.221  18.153  0.00  0.00    -0.088 A 
ATOM      7  C   UNL     1      49.938  16.522  17.534  0.00  0.00    +0.164 A 
ATOM     10  C   UNL     1      50.425  17.791  17.561  0.00  0.00    -0.147 A 
ATOM     11  C   UNL     1      49.718  18.829  18.200  0.00  0.00    -0.155 A 
ATOM     12  C   UNL     1      50.501  20.065  18.055  0.00  0.00    +0.521 C 
ATOM     13  O   UNL     1      51.631  19.826  17.367  0.00  0.00    -0.315 OA
ATOM     14  O   UNL     1      50.173  21.151  18.493  0.00  0.00    -0.432 OA
ATOM     15  C   UNL     1      51.682  18.418  17.007  0.00  0.00    +0.340 C 
ATOM     16  C   UNL     1      48.191  14.911  18.131  0.00  0.00    +0.146 A 
ATOM     19  C   UNL     1      48.494  18.563  18.822  0.00  0.00    +0.054 A 
ATOM     29  C   UNL     1      46.986  14.640  18.748  0.00  0.00    +0.067 A 
ENDROOT
BRANCH  19  20
ATOM     20  C   UNL     1      47.748  19.648  19.493  0.00  0.00    -0.055 A 
ATOM     21  C   UNL     1      48.015  19.960  20.829  0.00  0.00    +0.053 A 
ATOM     22  C   UNL     1      47.320  20.972  21.453  0.00  0.00    +0.041 A 
ATOM     23  C   UNL     1      46.351  21.684  20.761  0.00  0.00    +0.046 A 
ATOM     24  C   UNL     1      46.078  21.379  19.428  0.00  0.00    +0.038 A 
ATOM     25  O   UNL     1      45.096  22.214  18.980  0.00  0.00    -0.305 OA
ATOM     26  C   UNL     1      44.486  22.759  20.165  0.00  0.00    +0.434 C 
ATOM     27  O   UNL     1      45.540  22.712  21.145  0.00  0.00    -0.306 OA
ATOM     28  C   UNL     1      46.777  20.368  18.794  0.00  0.00    +0.076 A 
ENDBRANCH  19  20
BRANCH   3   2
ATOM      1  C   UNL     1      44.897  15.837  21.319  0.00  0.00    +0.250 C 
ATOM      2  O   UNL     1      45.079  15.371  19.980  0.00  0.00    -0.297 OA
ENDBRANCH   3   2
BRANCH   7   8
ATOM      8  O   UNL     1      50.640  15.541  16.911  0.00  0.00    -0.316 OA
ATOM      9  C   UNL     1      51.824  15.075  17.563  0.00  0.00    +0.234 C 
ENDBRANCH   7   8
BRANCH  16  17
ATOM     17  O   UNL     1      48.879  13.917  17.511  0.00  0.00    -0.464 OA
ATOM     18  H   UNL     1      48.375  13.099  17.401  0.00  0.00    +0.392 HD
ENDBRANCH  16  17
BRANCH  29  30
ATOM     30  O   UNL     1      46.490  13.373  18.733  0.00  0.00    -0.318 OA
ATOM     31  C   UNL     1      45.726  12.988  17.590  0.00  0.00    +0.236 C 
ENDBRANCH  29  30
TORSDOF 5
ENDMDL
MODEL 5
REMARK VINA RESULT:      -5.3      1.996      6.467
REMARK  Name = ZINC14435101
REMARK  8 active torsions:
REMARK  status: ('A' for Active; 'I' for Inactive)
REMARK    1  A    between atoms: C1_1  and  O1_2
REMARK    2  A    between atoms: O1_2  and  C2_3
REMARK    3  A    between atoms: C6_7  and  O3_11
REMARK    4  A    between atoms: C7_8  and  O2_9
REMARK    5  A    between atoms: O2_9  and  C8_10
REMARK    6  A    between atoms: C9_12  and  O8_29
REMARK    7  A    between atoms: C12_15  and  C13_16
REMARK    8  A    between atoms: O8_29  and  C22_30
REMARK                            x       y       z     vdW  Elec       q    Type
REMARK                         _______ _______ _______ _____ _____    ______ ____
ROOT
ATOM      3  C   UNL     1      43.401  20.299  18.848  0.00  0.00    +0.144 A 
ATOM      4  C   UNL     1      44.476  19.443  18.765  0.00  0.00    -0.049 A 
ATOM      5  C   UNL     1      45.713  19.819  19.308  0.00  0.00    +0.011 A 
ATOM      6  C   UNL     1      45.847  21.080  19.938  0.00  0.00    -0.088 A 
ATOM      7  C   UNL     1      47.092  21.461  20.485  0.00  0.00    +0.164 A 
ATOM     10  C   UNL     1      48.159  20.621  20.406  0.00  0.00    -0.147 A 
ATOM     11  C   UNL     1      48.051  19.361  19.784  0.00  0.00    -0.155 A 
ATOM     12  C   UNL     1      49.363  18.703  19.864  0.00  0.00    +0.521 C 
ATOM     13  O   UNL     1      50.246  19.495  20.496  0.00  0.00    -0.315 OA
ATOM     14  O   UNL     1      49.614  17.599  19.421  0.00  0.00    -0.432 OA
ATOM     15  C   UNL     1      49.588  20.733  20.881  0.00  0.00    +0.340 C 
ATOM     16  C   UNL     1      44.737  21.941  20.012  0.00  0.00    +0.146 A 
ATOM     19  C   UNL     1      46.831  18.955  19.234  0.00  0.00    +0.054 A 
ATOM     29  C   UNL     1      43.531  21.549  19.465  0.00  0.00    +0.067 A 
ENDROOT
BRANCH  19  20
ATOM     20  C   UNL     1      46.711  17.635  18.581  0.00  0.00    -0.055 A 
ATOM     21  C   UNL     1      46.951  17.506  17.210  0.00  0.00    +0.053 A 
ATOM     22  C   UNL     1      46.840  16.274  16.603  0.00  0.00    +0.041 A 
ATOM     23  C   UNL     1      46.487  15.158  17.348  0.00  0.00    +0.046 A 
ATOM     24  C   UNL     1      46.246  15.278  18.716  0.00  0.00    +0.038 A 
ATOM     25  O   UNL     1      45.921  14.049  19.212  0.00  0.00    -0.305 OA
ATOM     26  C   UNL     1      45.568  13.253  18.065  0.00  0.00    +0.434 C 
ATOM     27  O   UNL     1      46.315  13.853  16.989  0.00  0.00    -0.306 OA
ATOM     28  C   UNL     1      46.362  16.511  19.331  0.00  0.00    +0.076 A 
ENDBRANCH  19  20
BRANCH   3   2
ATOM      1  C   UNL     1      41.173  19.570  19.243  0.00  0.00    +0.250 C 
ATOM      2  O   UNL     1      42.204  19.931  18.321  0.00  0.00    -0.297 OA
ENDBRANCH   3   2
BRANCH   7   8
ATOM      8  O   UNL     1      47.226  22.669  21.090  0.00  0.00    -0.316 OA
ATOM      9  C   UNL     1      47.436  22.667  22.503  0.00  0.00    +0.234 C 
ENDBRANCH   7   8
BRANCH  16  17
ATOM     17  O   UNL     1      44.851  23.154  20.615  0.00  0.00    -0.464 OA
ATOM     18  H   UNL     1      45.010  23.884  20.001  0.00  0.00    +0.392 HD
ENDBRANCH  16  17
BRANCH  29  30
ATOM     30  O   UNL     1      42.458  22.382  19.531  0.00  0.00    -0.318 OA
ATOM     31  C   UNL     1      42.527  23.592  18.774  0.00  0.00    +0.236 C 
ENDBRANCH  29  30
TORSDOF 5
ENDMDL
MODEL 6
REMARK VINA RESULT:      -5.3      3.148      6.115
REMARK  Name = ZINC14435101
REMARK  8 active torsions:
REMARK  status: ('A' for Active; 'I' for Inactive)
REMARK    1  A    between atoms: C1_1  and  O1_2
REMARK    2  A    between atoms: O1_2  and  C2_3
REMARK    3  A    between atoms: C6_7  and  O3_11
REMARK    4  A    between atoms: C7_8  and  O2_9
REMARK    5  A    between atoms: O2_9  and  C8_10
REMARK    6  A    between atoms: C9_12  and  O8_29
REMARK    7  A    between atoms: C12_15  and  C13_16
REMARK    8  A    between atoms: O8_29  and  C22_30
REMARK                            x       y       z     vdW  Elec       q    Type
REMARK                         _______ _______ _______ _____ _____    ______ ____
ROOT
ATOM      3  C   UNL     1      47.668  15.068  17.113  0.00  0.00    +0.144 A 
ATOM      4  C   UNL     1      48.813  15.747  17.462  0.00  0.00    -0.049 A 
ATOM      5  C   UNL     1      49.927  15.041  17.939  0.00  0.00    +0.011 A 
ATOM      6  C   UNL     1      49.864  13.632  18.062  0.00  0.00    -0.088 A 
ATOM      7  C   UNL     1      50.984  12.920  18.544  0.00  0.00    +0.164 A 
ATOM     10  C   UNL     1      52.119  13.584  18.890  0.00  0.00    -0.147 A 
ATOM     11  C   UNL     1      52.206  14.985  18.778  0.00  0.00    -0.155 A 
ATOM     12  C   UNL     1      53.547  15.393  19.226  0.00  0.00    +0.521 C 
ATOM     13  O   UNL     1      54.262  14.317  19.598  0.00  0.00    -0.315 OA
ATOM     14  O   UNL     1      53.951  16.539  19.255  0.00  0.00    -0.432 OA
ATOM     15  C   UNL     1      53.453  13.122  19.425  0.00  0.00    +0.340 C 
ATOM     16  C   UNL     1      48.684  12.957  17.701  0.00  0.00    +0.146 A 
ATOM     19  C   UNL     1      51.114  15.719  18.304  0.00  0.00    +0.054 A 
ATOM     29  C   UNL     1      47.600  13.675  17.238  0.00  0.00    +0.067 A 
ENDROOT
BRANCH  19  20
ATOM     20  C   UNL     1      51.200  17.190  18.183  0.00  0.00    -0.055 A 
ATOM     21  C   UNL     1      50.806  18.004  19.248  0.00  0.00    +0.053 A 
ATOM     22  C   UNL     1      50.888  19.376  19.135  0.00  0.00    +0.041 A 
ATOM     23  C   UNL     1      51.359  19.952  17.964  0.00  0.00    +0.046 A 
ATOM     24  C   UNL     1      51.754  19.146  16.897  0.00  0.00    +0.038 A 
ATOM     25  O   UNL     1      52.174  19.948  15.875  0.00  0.00    -0.305 OA
ATOM     26  C   UNL     1      51.650  21.256  16.174  0.00  0.00    +0.434 C 
ATOM     27  O   UNL     1      51.534  21.258  17.609  0.00  0.00    -0.306 OA
ATOM     28  C   UNL     1      51.680  17.770  17.007  0.00  0.00    +0.076 A 
ENDBRANCH  19  20
BRANCH   3   2
ATOM      1  C   UNL     1      46.200  16.917  17.384  0.00  0.00    +0.250 C 
ATOM      2  O   UNL     1      46.592  15.755  16.650  0.00  0.00    -0.297 OA
ENDBRANCH   3   2
BRANCH   7   8
ATOM      8  O   UNL     1      50.928  11.568  18.662  0.00  0.00    -0.316 OA
ATOM      9  C   UNL     1      51.720  10.803  17.751  0.00  0.00    +0.234 C 
ENDBRANCH   7   8
BRANCH  16  17
ATOM     17  O   UNL     1      48.609  11.604  17.812  0.00  0.00    -0.464 OA
ATOM     18  H   UNL     1      49.460  11.176  17.981  0.00  0.00    +0.392 HD
ENDBRANCH  16  17
BRANCH  29  30
ATOM     30  O   UNL     1      46.456  13.023  16.893  0.00  0.00    -0.318 OA
ATOM     31  C   UNL     1      45.502  12.793  17.931  0.00  0.00    +0.236 C 
ENDBRANCH  29  30
TORSDOF 5
ENDMDL
MODEL 7
REMARK VINA RESULT:      -5.2      1.610      2.510
REMARK  Name = ZINC14435101
REMARK  8 active torsions:
REMARK  status: ('A' for Active; 'I' for Inactive)
REMARK    1  A    between atoms: C1_1  and  O1_2
REMARK    2  A    between atoms: O1_2  and  C2_3
REMARK    3  A    between atoms: C6_7  and  O3_11
REMARK    4  A    between atoms: C7_8  and  O2_9
REMARK    5  A    between atoms: O2_9  and  C8_10
REMARK    6  A    between atoms: C9_12  and  O8_29
REMARK    7  A    between atoms: C12_15  and  C13_16
REMARK    8  A    between atoms: O8_29  and  C22_30
REMARK                            x       y       z     vdW  Elec       q    Type
REMARK                         _______ _______ _______ _____ _____    ______ ____
ROOT
ATOM      3  C   UNL     1      47.861  16.349  17.520  0.00  0.00    +0.144 A 
ATOM      4  C   UNL     1      47.177  17.294  18.251  0.00  0.00    -0.049 A 
ATOM      5  C   UNL     1      47.883  18.207  19.048  0.00  0.00    +0.011 A 
ATOM      6  C   UNL     1      49.297  18.149  19.096  0.00  0.00    -0.088 A 
ATOM      7  C   UNL     1      50.008  19.067  19.898  0.00  0.00    +0.164 A 
ATOM     10  C   UNL     1      49.340  20.004  20.624  0.00  0.00    -0.147 A 
ATOM     11  C   UNL     1      47.933  20.081  20.593  0.00  0.00    -0.155 A 
ATOM     12  C   UNL     1      47.522  21.184  21.473  0.00  0.00    +0.521 C 
ATOM     13  O   UNL     1      48.599  21.768  22.026  0.00  0.00    -0.315 OA
ATOM     14  O   UNL     1      46.371  21.521  21.674  0.00  0.00    -0.432 OA
ATOM     15  C   UNL     1      49.800  21.098  21.556  0.00  0.00    +0.340 C 
ATOM     16  C   UNL     1      49.977  17.176  18.341  0.00  0.00    +0.146 A 
ATOM     19  C   UNL     1      47.200  19.186  19.808  0.00  0.00    +0.054 A 
ATOM     29  C   UNL     1      49.259  16.285  17.569  0.00  0.00    +0.067 A 
ENDROOT
BRANCH  19  20
ATOM     20  C   UNL     1      45.724  19.262  19.771  0.00  0.00    -0.055 A 
ATOM     21  C   UNL     1      45.086  20.021  18.786  0.00  0.00    +0.053 A 
ATOM     22  C   UNL     1      43.710  20.091  18.753  0.00  0.00    +0.041 A 
ATOM     23  C   UNL     1      42.953  19.412  19.697  0.00  0.00    +0.046 A 
ATOM     24  C   UNL     1      43.583  18.653  20.683  0.00  0.00    +0.038 A 
ATOM     25  O   UNL     1      42.627  18.091  21.479  0.00  0.00    -0.305 OA
ATOM     26  C   UNL     1      41.424  18.839  21.221  0.00  0.00    +0.434 C 
ATOM     27  O   UNL     1      41.604  19.322  19.876  0.00  0.00    -0.306 OA
ATOM     28  C   UNL     1      44.963  18.574  20.718  0.00  0.00    +0.076 A 
ENDBRANCH  19  20
BRANCH   3   2
ATOM      1  C   UNL     1      46.518  14.390  17.423  0.00  0.00    +0.250 C 
ATOM      2  O   UNL     1      47.174  15.466  16.749  0.00  0.00    -0.297 OA
ENDBRANCH   3   2
BRANCH   7   8
ATOM      8  O   UNL     1      51.364  19.016  19.947  0.00  0.00    -0.316 OA
ATOM      9  C   UNL     1      51.954  18.580  21.174  0.00  0.00    +0.234 C 
ENDBRANCH   7   8
BRANCH  16  17
ATOM     17  O   UNL     1      51.334  17.110  18.376  0.00  0.00    -0.464 OA
ATOM     18  H   UNL     1      51.756  17.886  18.770  0.00  0.00    +0.392 HD
ENDBRANCH  16  17
BRANCH  29  30
ATOM     30  O   UNL     1      49.916  15.340  16.843  0.00  0.00    -0.318 OA
ATOM     31  C   UNL     1      50.211  14.107  17.499  0.00  0.00    +0.236 C 
ENDBRANCH  29  30
TORSDOF 5
ENDMDL
MODEL 8
REMARK VINA RESULT:      -5.2      3.102      6.822
REMARK  Name = ZINC14435101
REMARK  8 active torsions:
REMARK  status: ('A' for Active; 'I' for Inactive)
REMARK    1  A    between atoms: C1_1  and  O1_2
REMARK    2  A    between atoms: O1_2  and  C2_3
REMARK    3  A    between atoms: C6_7  and  O3_11
REMARK    4  A    between atoms: C7_8  and  O2_9
REMARK    5  A    between atoms: O2_9  and  C8_10
REMARK    6  A    between atoms: C9_12  and  O8_29
REMARK    7  A    between atoms: C12_15  and  C13_16
REMARK    8  A    between atoms: O8_29  and  C22_30
REMARK                            x       y       z     vdW  Elec       q    Type
REMARK                         _______ _______ _______ _____ _____    ______ ____
ROOT
ATOM      3  C   UNL     1      41.705  19.886  18.996  0.00  0.00    +0.144 A 
ATOM      4  C   UNL     1      42.801  19.197  19.463  0.00  0.00    -0.049 A 
ATOM      5  C   UNL     1      43.955  19.896  19.848  0.00  0.00    +0.011 A 
ATOM      6  C   UNL     1      43.984  21.308  19.750  0.00  0.00    -0.088 A 
ATOM      7  C   UNL     1      45.145  22.012  20.136  0.00  0.00    +0.164 A 
ATOM     10  C   UNL     1      46.232  21.339  20.599  0.00  0.00    -0.147 A 
ATOM     11  C   UNL     1      46.228  19.934  20.704  0.00  0.00    -0.155 A 
ATOM     12  C   UNL     1      47.535  19.516  21.231  0.00  0.00    +0.521 C 
ATOM     13  O   UNL     1      48.318  20.587  21.445  0.00  0.00    -0.315 OA
ATOM     14  O   UNL     1      47.863  18.365  21.443  0.00  0.00    -0.432 OA
ATOM     15  C   UNL     1      47.590  21.791  21.077  0.00  0.00    +0.340 C 
ATOM     16  C   UNL     1      42.853  21.993  19.270  0.00  0.00    +0.146 A 
ATOM     19  C   UNL     1      45.092  19.207  20.330  0.00  0.00    +0.054 A 
ATOM     29  C   UNL     1      41.732  21.282  18.893  0.00  0.00    +0.067 A 
ENDROOT
BRANCH  19  20
ATOM     20  C   UNL     1      45.082  17.733  20.440  0.00  0.00    -0.055 A 
ATOM     21  C   UNL     1      44.659  17.122  21.623  0.00  0.00    +0.053 A 
ATOM     22  C   UNL     1      44.648  15.747  21.723  0.00  0.00    +0.041 A 
ATOM     23  C   UNL     1      45.060  14.966  20.653  0.00  0.00    +0.046 A 
ATOM     24  C   UNL     1      45.483  15.569  19.469  0.00  0.00    +0.038 A 
ATOM     25  O   UNL     1      45.830  14.592  18.581  0.00  0.00    -0.305 OA
ATOM     26  C   UNL     1      46.003  13.400  19.370  0.00  0.00    +0.434 C 
ATOM     27  O   UNL     1      45.141  13.612  20.503  0.00  0.00    -0.306 OA
ATOM     28  C   UNL     1      45.490  16.947  19.361  0.00  0.00    +0.076 A 
ENDBRANCH  19  20
BRANCH   3   2
ATOM      1  C   UNL     1      40.450  18.896  17.236  0.00  0.00    +0.250 C 
ATOM      2  O   UNL     1      40.589  19.206  18.625  0.00  0.00    -0.297 OA
ENDBRANCH   3   2
BRANCH   7   8
ATOM      8  O   UNL     1      45.177  23.367  20.044  0.00  0.00    -0.316 OA
ATOM      9  C   UNL     1      45.520  24.090  21.229  0.00  0.00    +0.234 C 
ENDBRANCH   7   8
BRANCH  16  17
ATOM     17  O   UNL     1      42.867  23.349  19.172  0.00  0.00    -0.464 OA
ATOM     18  H   UNL     1      43.353  23.790  19.883  0.00  0.00    +0.392 HD
ENDBRANCH  16  17
BRANCH  29  30
ATOM     30  O   UNL     1      40.640  21.944  18.423  0.00  0.00    -0.318 OA
ATOM     31  C   UNL     1      39.392  21.674  19.063  0.00  0.00    +0.236 C 
ENDBRANCH  29  30
TORSDOF 5
ENDMDL
MODEL 9
REMARK VINA RESULT:      -5.2      1.963      6.923
REMARK  Name = ZINC14435101
REMARK  8 active torsions:
REMARK  status: ('A' for Active; 'I' for Inactive)
REMARK    1  A    between atoms: C1_1  and  O1_2
REMARK    2  A    between atoms: O1_2  and  C2_3
REMARK    3  A    between atoms: C6_7  and  O3_11
REMARK    4  A    between atoms: C7_8  and  O2_9
REMARK    5  A    between atoms: O2_9  and  C8_10
REMARK    6  A    between atoms: C9_12  and  O8_29
REMARK    7  A    between atoms: C12_15  and  C13_16
REMARK    8  A    between atoms: O8_29  and  C22_30
REMARK                            x       y       z     vdW  Elec       q    Type
REMARK                         _______ _______ _______ _____ _____    ______ ____
ROOT
ATOM      3  C   UNL     1      50.648  18.679  17.823  0.00  0.00    +0.144 A 
ATOM      4  C   UNL     1      49.879  17.541  17.910  0.00  0.00    -0.049 A 
ATOM      5  C   UNL     1      48.661  17.572  18.605  0.00  0.00    +0.011 A 
ATOM      6  C   UNL     1      48.233  18.776  19.215  0.00  0.00    -0.088 A 
ATOM      7  C   UNL     1      47.007  18.808  19.916  0.00  0.00    +0.164 A 
ATOM     10  C   UNL     1      46.241  17.688  20.006  0.00  0.00    -0.147 A 
ATOM     11  C   UNL     1      46.646  16.478  19.409  0.00  0.00    -0.155 A 
ATOM     12  C   UNL     1      45.612  15.470  19.684  0.00  0.00    +0.521 C 
ATOM     13  O   UNL     1      44.616  16.006  20.410  0.00  0.00    -0.315 OA
ATOM     14  O   UNL     1      45.651  14.314  19.309  0.00  0.00    -0.432 OA
ATOM     15  C   UNL     1      44.914  17.405  20.669  0.00  0.00    +0.340 C 
ATOM     16  C   UNL     1      49.034  19.927  19.115  0.00  0.00    +0.146 A 
ATOM     19  C   UNL     1      47.854  16.414  18.707  0.00  0.00    +0.054 A 
ATOM     29  C   UNL     1      50.231  19.870  18.430  0.00  0.00    +0.067 A 
ENDROOT
BRANCH  19  20
ATOM     20  C   UNL     1      48.283  15.148  18.077  0.00  0.00    -0.055 A 
ATOM     21  C   UNL     1      49.105  14.260  18.777  0.00  0.00    +0.053 A 
ATOM     22  C   UNL     1      49.504  13.079  18.189  0.00  0.00    +0.041 A 
ATOM     23  C   UNL     1      49.094  12.768  16.901  0.00  0.00    +0.046 A 
ATOM     24  C   UNL     1      48.273  13.649  16.196  0.00  0.00    +0.038 A 
ATOM     25  O   UNL     1      48.015  13.115  14.966  0.00  0.00    -0.305 OA
ATOM     26  C   UNL     1      49.013  12.096  14.772  0.00  0.00    +0.434 C 
ATOM     27  O   UNL     1      49.346  11.684  16.112  0.00  0.00    -0.306 OA
ATOM     28  C   UNL     1      47.866  14.832  16.783  0.00  0.00    +0.076 A 
ENDBRANCH  19  20
BRANCH   3   2
ATOM      1  C   UNL     1      51.769  18.832  15.733  0.00  0.00    +0.250 C 
ATOM      2  O   UNL     1      51.827  18.645  17.149  0.00  0.00    -0.297 OA
ENDBRANCH   3   2
BRANCH   7   8
ATOM      8  O   UNL     1      46.592  19.961  20.502  0.00  0.00    -0.316 OA
ATOM      9  C   UNL     1      45.461  20.614  19.922  0.00  0.00    +0.234 C 
ENDBRANCH   7   8
BRANCH  16  17
ATOM     17  O   UNL     1      48.635  21.090  19.695  0.00  0.00    -0.464 OA
ATOM     18  H   UNL     1      49.119  21.314  20.501  0.00  0.00    +0.392 HD
ENDBRANCH  16  17
BRANCH  29  30
ATOM     30  O   UNL     1      51.009  20.981  18.337  0.00  0.00    -0.318 OA
ATOM     31  C   UNL     1      51.992  21.173  19.355  0.00  0.00    +0.236 C 
ENDBRANCH  29  30
TORSDOF 5
ENDMDL
