MODEL 1
REMARK VINA RESULT:      -5.1      0.000      0.000
REMARK  Name = ZINC95486166
REMARK  13 active torsions:
REMARK  status: ('A' for Active; 'I' for Inactive)
REMARK    1  A    between atoms: C1_1  and  C2_2
REMARK    2  A    between atoms: C6_7  and  O5_34
REMARK    3  A    between atoms: C7_8  and  C14_18
REMARK    4  A    between atoms: C8_9  and  O1_16
REMARK    5  A    between atoms: C10_11  and  C12_15
REMARK    6  A    between atoms: N1_13  and  C11_14
REMARK    7  A    between atoms: O1_16  and  C13_17
REMARK    8  A    between atoms: C19_23  and  O4_32
REMARK    9  A    between atoms: C21_25  and  O3_30
REMARK   10  A    between atoms: C23_27  and  O2_28
REMARK   11  A    between atoms: O2_28  and  C24_29
REMARK   12  A    between atoms: O3_30  and  C25_31
REMARK   13  A    between atoms: O4_32  and  C26_33
REMARK                            x       y       z     vdW  Elec       q    Type
REMARK                         _______ _______ _______ _____ _____    ______ ____
ROOT
ATOM      1  C   UNL     1      46.500  10.771  15.657  0.00  0.00    +0.038 C 
ATOM      2  C   UNL     1      46.905  11.949  16.547  0.00  0.00    +0.124 C 
ATOM      3  C   UNL     1      45.718  12.373  17.411  0.00  0.00    +0.098 C 
ATOM      4  C   UNL     1      46.027  13.672  18.110  0.00  0.00    -0.039 A 
ATOM      5  C   UNL     1      45.246  14.037  19.197  0.00  0.00    -0.022 A 
ATOM      6  C   UNL     1      45.485  15.220  19.872  0.00  0.00    +0.136 A 
ATOM      9  C   UNL     1      46.524  16.057  19.453  0.00  0.00    -0.064 A 
ATOM     26  C   UNL     1      47.307  15.684  18.359  0.00  0.00    +0.134 A 
ATOM     29  C   UNL     1      47.057  14.490  17.692  0.00  0.00    -0.100 A 
ATOM     30  C   UNL     1      47.938  14.126  16.525  0.00  0.00    +0.221 C 
ATOM     31  C   UNL     1      49.279  13.607  17.046  0.00  0.00    +0.009 C 
ATOM     32  N   UNL     1      47.308  13.088  15.706  0.00  0.00    -0.528 NA
ATOM     33  C   UNL     1      48.199  12.654  14.622  0.00  0.00    +0.191 C 
ENDROOT
BRANCH   9  10
ATOM     10  C   UNL     1      46.790  17.328  20.163  0.00  0.00    -0.118 A 
ATOM     11  C   UNL     1      46.088  18.504  19.807  0.00  0.00    +0.075 A 
ATOM     12  C   UNL     1      45.130  18.492  18.781  0.00  0.00    -0.038 A 
ATOM     13  C   UNL     1      44.467  19.637  18.458  0.00  0.00    +0.079 A 
ATOM     14  C   UNL     1      44.723  20.829  19.130  0.00  0.00    -0.120 A 
ATOM     15  C   UNL     1      45.655  20.879  20.142  0.00  0.00    +0.178 A 
ATOM     18  C   UNL     1      46.356  19.710  20.497  0.00  0.00    -0.124 A 
ATOM     19  C   UNL     1      47.317  19.723  21.529  0.00  0.00    +0.210 A 
ATOM     22  C   UNL     1      47.989  18.567  21.858  0.00  0.00    -0.176 A 
ATOM     23  C   UNL     1      47.727  17.374  21.188  0.00  0.00    +0.202 A 
BRANCH  15  16
ATOM     16  O   UNL     1      45.897  22.046  20.791  0.00  0.00    -0.292 OA
ATOM     17  C   UNL     1      44.761  22.826  21.173  0.00  0.00    +0.239 C 
ENDBRANCH  15  16
BRANCH  19  20
ATOM     20  O   UNL     1      47.581  20.876  22.197  0.00  0.00    -0.285 OA
ATOM     21  C   UNL     1      48.955  21.226  22.369  0.00  0.00    +0.240 C 
ENDBRANCH  19  20
BRANCH  23  24
ATOM     24  O   UNL     1      48.400  16.246  21.534  0.00  0.00    -0.304 OA
ATOM     25  C   UNL     1      49.807  16.228  21.285  0.00  0.00    +0.238 C 
ENDBRANCH  23  24
ENDBRANCH   9  10
BRANCH   6   7
ATOM      7  O   UNL     1      44.714  15.566  20.936  0.00  0.00    -0.488 OA
ATOM      8  H   UNL     1      44.238  16.401  20.822  0.00  0.00    +0.389 HD
ENDBRANCH   6   7
BRANCH  26  27
ATOM     27  O   UNL     1      48.319  16.492  17.944  0.00  0.00    -0.326 OA
ATOM     28  C   UNL     1      48.028  17.402  16.880  0.00  0.00    +0.223 C 
ENDBRANCH  26  27
TORSDOF 6
ENDMDL
MODEL 2
REMARK VINA RESULT:      -5.1      2.577      3.864
REMARK  Name = ZINC95486166
REMARK  13 active torsions:
REMARK  status: ('A' for Active; 'I' for Inactive)
REMARK    1  A    between atoms: C1_1  and  C2_2
REMARK    2  A    between atoms: C6_7  and  O5_34
REMARK    3  A    between atoms: C7_8  and  C14_18
REMARK    4  A    between atoms: C8_9  and  O1_16
REMARK    5  A    between atoms: C10_11  and  C12_15
REMARK    6  A    between atoms: N1_13  and  C11_14
REMARK    7  A    between atoms: O1_16  and  C13_17
REMARK    8  A    between atoms: C19_23  and  O4_32
REMARK    9  A    between atoms: C21_25  and  O3_30
REMARK   10  A    between atoms: C23_27  and  O2_28
REMARK   11  A    between atoms: O2_28  and  C24_29
REMARK   12  A    between atoms: O3_30  and  C25_31
REMARK   13  A    between atoms: O4_32  and  C26_33
REMARK                            x       y       z     vdW  Elec       q    Type
REMARK                         _______ _______ _______ _____ _____    ______ ____
ROOT
ATOM      1  C   UNL     1      47.063  10.279  16.114  0.00  0.00    +0.038 C 
ATOM      2  C   UNL     1      47.315  11.538  16.947  0.00  0.00    +0.124 C 
ATOM      3  C   UNL     1      46.892  12.773  16.153  0.00  0.00    +0.098 C 
ATOM      4  C   UNL     1      47.354  14.022  16.860  0.00  0.00    -0.039 A 
ATOM      5  C   UNL     1      46.773  15.232  16.506  0.00  0.00    -0.022 A 
ATOM      6  C   UNL     1      47.162  16.408  17.120  0.00  0.00    +0.136 A 
ATOM      9  C   UNL     1      48.152  16.377  18.107  0.00  0.00    -0.064 A 
ATOM     26  C   UNL     1      48.732  15.158  18.460  0.00  0.00    +0.134 A 
ATOM     29  C   UNL     1      48.328  13.982  17.836  0.00  0.00    -0.100 A 
ATOM     30  C   UNL     1      48.975  12.690  18.260  0.00  0.00    +0.221 C 
ATOM     31  C   UNL     1      48.378  12.240  19.595  0.00  0.00    +0.009 C 
ATOM     32  N   UNL     1      48.750  11.645  17.258  0.00  0.00    -0.528 NA
ATOM     33  C   UNL     1      49.290  10.355  17.706  0.00  0.00    +0.191 C 
ENDROOT
BRANCH   9  10
ATOM     10  C   UNL     1      48.582  17.628  18.771  0.00  0.00    -0.118 A 
ATOM     11  C   UNL     1      49.629  18.404  18.221  0.00  0.00    +0.075 A 
ATOM     12  C   UNL     1      50.280  18.009  17.042  0.00  0.00    -0.038 A 
ATOM     13  C   UNL     1      51.285  18.773  16.531  0.00  0.00    +0.079 A 
ATOM     14  C   UNL     1      51.683  19.948  17.161  0.00  0.00    -0.120 A 
ATOM     15  C   UNL     1      51.069  20.368  18.320  0.00  0.00    +0.178 A 
ATOM     18  C   UNL     1      50.027  19.597  18.870  0.00  0.00    -0.124 A 
ATOM     19  C   UNL     1      49.374  19.996  20.055  0.00  0.00    +0.210 A 
ATOM     22  C   UNL     1      48.357  19.225  20.573  0.00  0.00    -0.176 A 
ATOM     23  C   UNL     1      47.956  18.052  19.937  0.00  0.00    +0.202 A 
BRANCH  15  16
ATOM     16  O   UNL     1      51.465  21.516  18.927  0.00  0.00    -0.292 OA
ATOM     17  C   UNL     1      52.772  21.526  19.506  0.00  0.00    +0.239 C 
ENDBRANCH  15  16
BRANCH  19  20
ATOM     20  O   UNL     1      49.748  21.139  20.685  0.00  0.00    -0.285 OA
ATOM     21  C   UNL     1      49.900  21.078  22.104  0.00  0.00    +0.240 C 
ENDBRANCH  19  20
BRANCH  23  24
ATOM     24  O   UNL     1      46.947  17.312  20.466  0.00  0.00    -0.304 OA
ATOM     25  C   UNL     1      45.651  17.913  20.498  0.00  0.00    +0.238 C 
ENDBRANCH  23  24
ENDBRANCH   9  10
BRANCH   6   7
ATOM      7  O   UNL     1      46.586  17.586  16.765  0.00  0.00    -0.488 OA
ATOM      8  H   UNL     1      45.798  17.489  16.213  0.00  0.00    +0.389 HD
ENDBRANCH   6   7
BRANCH  26  27
ATOM     27  O   UNL     1      49.695  15.118  19.418  0.00  0.00    -0.326 OA
ATOM     28  C   UNL     1      51.052  15.056  18.972  0.00  0.00    +0.223 C 
ENDBRANCH  26  27
TORSDOF 6
ENDMDL
MODEL 3
REMARK VINA RESULT:      -5.0      2.466      3.871
REMARK  Name = ZINC95486166
REMARK  13 active torsions:
REMARK  status: ('A' for Active; 'I' for Inactive)
REMARK    1  A    between atoms: C1_1  and  C2_2
REMARK    2  A    between atoms: C6_7  and  O5_34
REMARK    3  A    between atoms: C7_8  and  C14_18
REMARK    4  A    between atoms: C8_9  and  O1_16
REMARK    5  A    between atoms: C10_11  and  C12_15
REMARK    6  A    between atoms: N1_13  and  C11_14
REMARK    7  A    between atoms: O1_16  and  C13_17
REMARK    8  A    between atoms: C19_23  and  O4_32
REMARK    9  A    between atoms: C21_25  and  O3_30
REMARK   10  A    between atoms: C23_27  and  O2_28
REMARK   11  A    between atoms: O2_28  and  C24_29
REMARK   12  A    between atoms: O3_30  and  C25_31
REMARK   13  A    between atoms: O4_32  and  C26_33
REMARK                            x       y       z     vdW  Elec       q    Type
REMARK                         _______ _______ _______ _____ _____    ______ ____
ROOT
ATOM      1  C   UNL     1      52.113  11.209  15.085  0.00  0.00    +0.038 C 
ATOM      2  C   UNL     1      50.974  12.094  15.595  0.00  0.00    +0.124 C 
ATOM      3  C   UNL     1      51.362  12.707  16.941  0.00  0.00    +0.098 C 
ATOM      4  C   UNL     1      50.167  13.381  17.564  0.00  0.00    -0.039 A 
ATOM      5  C   UNL     1      50.384  14.290  18.590  0.00  0.00    -0.022 A 
ATOM      6  C   UNL     1      49.323  14.935  19.198  0.00  0.00    +0.136 A 
ATOM      9  C   UNL     1      48.017  14.666  18.775  0.00  0.00    -0.064 A 
ATOM     26  C   UNL     1      47.804  13.753  17.741  0.00  0.00    +0.134 A 
ATOM     29  C   UNL     1      48.882  13.115  17.136  0.00  0.00    -0.100 A 
ATOM     30  C   UNL     1      48.602  12.146  16.017  0.00  0.00    +0.221 C 
ATOM     31  C   UNL     1      48.290  12.927  14.739  0.00  0.00    +0.009 C 
ATOM     32  N   UNL     1      49.761  11.282  15.779  0.00  0.00    -0.528 NA
ATOM     33  C   UNL     1      49.537  10.400  14.625  0.00  0.00    +0.191 C 
ENDROOT
BRANCH   9  10
ATOM     10  C   UNL     1      46.870  15.346  19.417  0.00  0.00    -0.118 A 
ATOM     11  C   UNL     1      46.444  16.614  18.958  0.00  0.00    +0.075 A 
ATOM     12  C   UNL     1      47.094  17.253  17.890  0.00  0.00    -0.038 A 
ATOM     13  C   UNL     1      46.664  18.474  17.465  0.00  0.00    +0.079 A 
ATOM     14  C   UNL     1      45.584  19.106  18.074  0.00  0.00    -0.120 A 
ATOM     15  C   UNL     1      44.922  18.510  19.123  0.00  0.00    +0.178 A 
ATOM     18  C   UNL     1      45.345  17.248  19.584  0.00  0.00    -0.124 A 
ATOM     19  C   UNL     1      44.689  16.608  20.656  0.00  0.00    +0.210 A 
ATOM     22  C   UNL     1      45.121  15.373  21.087  0.00  0.00    -0.176 A 
ATOM     23  C   UNL     1      46.199  14.740  20.473  0.00  0.00    +0.202 A 
BRANCH  15  16
ATOM     16  O   UNL     1      43.869  19.136  19.711  0.00  0.00    -0.292 OA
ATOM     17  C   UNL     1      43.121  20.046  18.903  0.00  0.00    +0.239 C 
ENDBRANCH  15  16
BRANCH  19  20
ATOM     20  O   UNL     1      43.634  17.208  21.263  0.00  0.00    -0.285 OA
ATOM     21  C   UNL     1      43.197  16.652  22.505  0.00  0.00    +0.240 C 
ENDBRANCH  19  20
BRANCH  23  24
ATOM     24  O   UNL     1      46.603  13.520  20.914  0.00  0.00    -0.304 OA
ATOM     25  C   UNL     1      47.151  13.456  22.232  0.00  0.00    +0.238 C 
ENDBRANCH  23  24
ENDBRANCH   9  10
BRANCH   6   7
ATOM      7  O   UNL     1      49.547  15.823  20.201  0.00  0.00    -0.488 OA
ATOM      8  H   UNL     1      48.870  16.509  20.279  0.00  0.00    +0.389 HD
ENDBRANCH   6   7
BRANCH  26  27
ATOM     27  O   UNL     1      46.539  13.486  17.323  0.00  0.00    -0.326 OA
ATOM     28  C   UNL     1      45.917  12.309  17.846  0.00  0.00    +0.223 C 
ENDBRANCH  26  27
TORSDOF 6
ENDMDL
MODEL 4
REMARK VINA RESULT:      -5.0      2.803      7.713
REMARK  Name = ZINC95486166
REMARK  13 active torsions:
REMARK  status: ('A' for Active; 'I' for Inactive)
REMARK    1  A    between atoms: C1_1  and  C2_2
REMARK    2  A    between atoms: C6_7  and  O5_34
REMARK    3  A    between atoms: C7_8  and  C14_18
REMARK    4  A    between atoms: C8_9  and  O1_16
REMARK    5  A    between atoms: C10_11  and  C12_15
REMARK    6  A    between atoms: N1_13  and  C11_14
REMARK    7  A    between atoms: O1_16  and  C13_17
REMARK    8  A    between atoms: C19_23  and  O4_32
REMARK    9  A    between atoms: C21_25  and  O3_30
REMARK   10  A    between atoms: C23_27  and  O2_28
REMARK   11  A    between atoms: O2_28  and  C24_29
REMARK   12  A    between atoms: O3_30  and  C25_31
REMARK   13  A    between atoms: O4_32  and  C26_33
REMARK                            x       y       z     vdW  Elec       q    Type
REMARK                         _______ _______ _______ _____ _____    ______ ____
ROOT
ATOM      1  C   UNL     1      44.795  22.477  20.642  0.00  0.00    +0.038 C 
ATOM      2  C   UNL     1      45.851  21.479  20.162  0.00  0.00    +0.124 C 
ATOM      3  C   UNL     1      45.232  20.532  19.133  0.00  0.00    +0.098 C 
ATOM      4  C   UNL     1      46.185  19.404  18.833  0.00  0.00    -0.039 A 
ATOM      5  C   UNL     1      45.976  18.653  17.685  0.00  0.00    -0.022 A 
ATOM      6  C   UNL     1      46.818  17.604  17.365  0.00  0.00    +0.136 A 
ATOM      9  C   UNL     1      47.891  17.297  18.207  0.00  0.00    -0.064 A 
ATOM     26  C   UNL     1      48.099  18.057  19.360  0.00  0.00    +0.134 A 
ATOM     29  C   UNL     1      47.245  19.111  19.667  0.00  0.00    -0.100 A 
ATOM     30  C   UNL     1      47.517  19.909  20.916  0.00  0.00    +0.221 C 
ATOM     31  C   UNL     1      48.681  20.868  20.659  0.00  0.00    +0.009 C 
ATOM     32  N   UNL     1      46.335  20.684  21.302  0.00  0.00    -0.528 NA
ATOM     33  C   UNL     1      46.619  21.542  22.460  0.00  0.00    +0.191 C 
ENDROOT
BRANCH   9  10
ATOM     10  C   UNL     1      48.800  16.176  17.880  0.00  0.00    -0.118 A 
ATOM     11  C   UNL     1      48.465  14.854  18.256  0.00  0.00    +0.075 A 
ATOM     12  C   UNL     1      47.272  14.577  18.942  0.00  0.00    -0.038 A 
ATOM     13  C   UNL     1      46.971  13.295  19.292  0.00  0.00    +0.079 A 
ATOM     14  C   UNL     1      47.830  12.246  18.980  0.00  0.00    -0.120 A 
ATOM     15  C   UNL     1      49.009  12.479  18.308  0.00  0.00    +0.178 A 
ATOM     18  C   UNL     1      49.346  13.794  17.934  0.00  0.00    -0.124 A 
ATOM     19  C   UNL     1      50.545  14.070  17.243  0.00  0.00    +0.210 A 
ATOM     22  C   UNL     1      50.851  15.365  16.888  0.00  0.00    -0.176 A 
ATOM     23  C   UNL     1      49.986  16.413  17.196  0.00  0.00    +0.202 A 
BRANCH  15  16
ATOM     16  O   UNL     1      49.841  11.448  18.009  0.00  0.00    -0.292 OA
ATOM     17  C   UNL     1      49.255  10.296  17.398  0.00  0.00    +0.239 C 
ENDBRANCH  15  16
BRANCH  19  20
ATOM     20  O   UNL     1      51.396  13.060  16.930  0.00  0.00    -0.285 OA
ATOM     21  C   UNL     1      51.710  12.881  15.548  0.00  0.00    +0.240 C 
ENDBRANCH  19  20
BRANCH  23  24
ATOM     24  O   UNL     1      50.309  17.681  16.830  0.00  0.00    -0.304 OA
ATOM     25  C   UNL     1      51.523  18.219  17.360  0.00  0.00    +0.238 C 
ENDBRANCH  23  24
ENDBRANCH   9  10
BRANCH   6   7
ATOM      7  O   UNL     1      46.603  16.875  16.238  0.00  0.00    -0.488 OA
ATOM      8  H   UNL     1      47.367  16.829  15.647  0.00  0.00    +0.389 HD
ENDBRANCH   6   7
BRANCH  26  27
ATOM     27  O   UNL     1      49.139  17.767  20.185  0.00  0.00    -0.326 OA
ATOM     28  C   UNL     1      48.867  16.906  21.293  0.00  0.00    +0.223 C 
ENDBRANCH  26  27
TORSDOF 6
ENDMDL
MODEL 5
REMARK VINA RESULT:      -4.9      2.585      4.620
REMARK  Name = ZINC95486166
REMARK  13 active torsions:
REMARK  status: ('A' for Active; 'I' for Inactive)
REMARK    1  A    between atoms: C1_1  and  C2_2
REMARK    2  A    between atoms: C6_7  and  O5_34
REMARK    3  A    between atoms: C7_8  and  C14_18
REMARK    4  A    between atoms: C8_9  and  O1_16
REMARK    5  A    between atoms: C10_11  and  C12_15
REMARK    6  A    between atoms: N1_13  and  C11_14
REMARK    7  A    between atoms: O1_16  and  C13_17
REMARK    8  A    between atoms: C19_23  and  O4_32
REMARK    9  A    between atoms: C21_25  and  O3_30
REMARK   10  A    between atoms: C23_27  and  O2_28
REMARK   11  A    between atoms: O2_28  and  C24_29
REMARK   12  A    between atoms: O3_30  and  C25_31
REMARK   13  A    between atoms: O4_32  and  C26_33
REMARK                            x       y       z     vdW  Elec       q    Type
REMARK                         _______ _______ _______ _____ _____    ______ ____
ROOT
ATOM      1  C   UNL     1      53.053  10.281  15.518  0.00  0.00    +0.038 C 
ATOM      2  C   UNL     1      51.911  10.907  16.321  0.00  0.00    +0.124 C 
ATOM      3  C   UNL     1      51.073  11.804  15.410  0.00  0.00    +0.098 C 
ATOM      4  C   UNL     1      50.099  12.608  16.233  0.00  0.00    -0.039 A 
ATOM      5  C   UNL     1      49.023  13.200  15.587  0.00  0.00    -0.022 A 
ATOM      6  C   UNL     1      48.102  13.951  16.294  0.00  0.00    +0.136 A 
ATOM      9  C   UNL     1      48.258  14.115  17.674  0.00  0.00    -0.064 A 
ATOM     26  C   UNL     1      49.341  13.516  18.319  0.00  0.00    +0.134 A 
ATOM     29  C   UNL     1      50.257  12.761  17.595  0.00  0.00    -0.100 A 
ATOM     30  C   UNL     1      51.403  12.124  18.339  0.00  0.00    +0.221 C 
ATOM     31  C   UNL     1      50.898  10.884  19.079  0.00  0.00    +0.009 C 
ATOM     32  N   UNL     1      52.465  11.728  17.411  0.00  0.00    -0.528 NA
ATOM     33  C   UNL     1      53.543  11.016  18.111  0.00  0.00    +0.191 C 
ENDROOT
BRANCH   9  10
ATOM     10  C   UNL     1      47.282  14.919  18.445  0.00  0.00    -0.118 A 
ATOM     11  C   UNL     1      47.467  16.314  18.594  0.00  0.00    +0.075 A 
ATOM     12  C   UNL     1      48.571  16.963  18.019  0.00  0.00    -0.038 A 
ATOM     13  C   UNL     1      48.726  18.307  18.175  0.00  0.00    +0.079 A 
ATOM     14  C   UNL     1      47.804  19.056  18.901  0.00  0.00    -0.120 A 
ATOM     15  C   UNL     1      46.709  18.454  19.479  0.00  0.00    +0.178 A 
ATOM     18  C   UNL     1      46.524  17.065  19.334  0.00  0.00    -0.124 A 
ATOM     19  C   UNL     1      45.413  16.415  19.911  0.00  0.00    +0.210 A 
ATOM     22  C   UNL     1      45.254  15.056  19.754  0.00  0.00    -0.176 A 
ATOM     23  C   UNL     1      46.175  14.310  19.022  0.00  0.00    +0.202 A 
BRANCH  15  16
ATOM     16  O   UNL     1      45.816  19.193  20.186  0.00  0.00    -0.292 OA
ATOM     17  C   UNL     1      45.332  20.389  19.570  0.00  0.00    +0.239 C 
ENDBRANCH  15  16
BRANCH  19  20
ATOM     20  O   UNL     1      44.503  17.128  20.623  0.00  0.00    -0.285 OA
ATOM     21  C   UNL     1      44.034  16.548  21.841  0.00  0.00    +0.240 C 
ENDBRANCH  19  20
BRANCH  23  24
ATOM     24  O   UNL     1      45.992  12.971  18.877  0.00  0.00    -0.304 OA
ATOM     25  C   UNL     1      45.006  12.550  17.932  0.00  0.00    +0.238 C 
ENDBRANCH  23  24
ENDBRANCH   9  10
BRANCH   6   7
ATOM      7  O   UNL     1      47.053  14.526  15.651  0.00  0.00    -0.488 OA
ATOM      8  H   UNL     1      46.749  14.035  14.875  0.00  0.00    +0.389 HD
ENDBRANCH   6   7
BRANCH  26  27
ATOM     27  O   UNL     1      49.500  13.670  19.660  0.00  0.00    -0.326 OA
ATOM     28  C   UNL     1      50.447  14.650  20.092  0.00  0.00    +0.223 C 
ENDBRANCH  26  27
TORSDOF 6
ENDMDL
MODEL 6
REMARK VINA RESULT:      -4.9      2.772      7.643
REMARK  Name = ZINC95486166
REMARK  13 active torsions:
REMARK  status: ('A' for Active; 'I' for Inactive)
REMARK    1  A    between atoms: C1_1  and  C2_2
REMARK    2  A    between atoms: C6_7  and  O5_34
REMARK    3  A    between atoms: C7_8  and  C14_18
REMARK    4  A    between atoms: C8_9  and  O1_16
REMARK    5  A    between atoms: C10_11  and  C12_15
REMARK    6  A    between atoms: N1_13  and  C11_14
REMARK    7  A    between atoms: O1_16  and  C13_17
REMARK    8  A    between atoms: C19_23  and  O4_32
REMARK    9  A    between atoms: C21_25  and  O3_30
REMARK   10  A    between atoms: C23_27  and  O2_28
REMARK   11  A    between atoms: O2_28  and  C24_29
REMARK   12  A    between atoms: O3_30  and  C25_31
REMARK   13  A    between atoms: O4_32  and  C26_33
REMARK                            x       y       z     vdW  Elec       q    Type
REMARK                         _______ _______ _______ _____ _____    ______ ____
ROOT
ATOM      1  C   UNL     1      45.022  23.371  20.411  0.00  0.00    +0.038 C 
ATOM      2  C   UNL     1      45.875  22.127  20.153  0.00  0.00    +0.124 C 
ATOM      3  C   UNL     1      45.160  21.211  19.160  0.00  0.00    +0.098 C 
ATOM      4  C   UNL     1      45.869  19.883  19.082  0.00  0.00    -0.039 A 
ATOM      5  C   UNL     1      45.604  19.059  17.998  0.00  0.00    -0.022 A 
ATOM      6  C   UNL     1      46.224  17.828  17.879  0.00  0.00    +0.136 A 
ATOM      9  C   UNL     1      47.127  17.412  18.862  0.00  0.00    -0.064 A 
ATOM     26  C   UNL     1      47.391  18.247  19.950  0.00  0.00    +0.134 A 
ATOM     29  C   UNL     1      46.762  19.483  20.054  0.00  0.00    -0.100 A 
ATOM     30  C   UNL     1      47.089  20.352  21.240  0.00  0.00    +0.221 C 
ATOM     31  C   UNL     1      48.451  21.014  21.022  0.00  0.00    +0.009 C 
ATOM     32  N   UNL     1      46.073  21.393  21.413  0.00  0.00    -0.528 NA
ATOM     33  C   UNL     1      46.433  22.309  22.505  0.00  0.00    +0.191 C 
ENDROOT
BRANCH   9  10
ATOM     10  C   UNL     1      47.797  16.097  18.752  0.00  0.00    -0.118 A 
ATOM     11  C   UNL     1      49.042  15.985  18.089  0.00  0.00    +0.075 A 
ATOM     12  C   UNL     1      49.666  17.110  17.527  0.00  0.00    -0.038 A 
ATOM     13  C   UNL     1      50.866  16.976  16.895  0.00  0.00    +0.079 A 
ATOM     14  C   UNL     1      51.490  15.737  16.795  0.00  0.00    -0.120 A 
ATOM     15  C   UNL     1      50.909  14.612  17.335  0.00  0.00    +0.178 A 
ATOM     18  C   UNL     1      49.668  14.720  17.994  0.00  0.00    -0.124 A 
ATOM     19  C   UNL     1      49.044  13.589  18.560  0.00  0.00    +0.210 A 
ATOM     22  C   UNL     1      47.832  13.721  19.199  0.00  0.00    -0.176 A 
ATOM     23  C   UNL     1      47.211  14.964  19.303  0.00  0.00    +0.202 A 
BRANCH  15  16
ATOM     16  O   UNL     1      51.526  13.406  17.232  0.00  0.00    -0.292 OA
ATOM     17  C   UNL     1      51.744  12.899  15.914  0.00  0.00    +0.239 C 
ENDBRANCH  15  16
BRANCH  19  20
ATOM     20  O   UNL     1      49.637  12.371  18.473  0.00  0.00    -0.285 OA
ATOM     21  C   UNL     1      48.925  11.262  19.023  0.00  0.00    +0.240 C 
ENDBRANCH  19  20
BRANCH  23  24
ATOM     24  O   UNL     1      46.017  15.069  19.943  0.00  0.00    -0.304 OA
ATOM     25  C   UNL     1      45.243  13.874  20.070  0.00  0.00    +0.238 C 
ENDBRANCH  23  24
ENDBRANCH   9  10
BRANCH   6   7
ATOM      7  O   UNL     1      45.957  17.029  16.813  0.00  0.00    -0.488 OA
ATOM      8  H   UNL     1      45.648  16.144  17.052  0.00  0.00    +0.389 HD
ENDBRANCH   6   7
BRANCH  26  27
ATOM     27  O   UNL     1      48.267  17.850  20.911  0.00  0.00    -0.326 OA
ATOM     28  C   UNL     1      47.712  17.292  22.104  0.00  0.00    +0.223 C 
ENDBRANCH  26  27
TORSDOF 6
ENDMDL
MODEL 7
REMARK VINA RESULT:      -4.8      3.012      5.487
REMARK  Name = ZINC95486166
REMARK  13 active torsions:
REMARK  status: ('A' for Active; 'I' for Inactive)
REMARK    1  A    between atoms: C1_1  and  C2_2
REMARK    2  A    between atoms: C6_7  and  O5_34
REMARK    3  A    between atoms: C7_8  and  C14_18
REMARK    4  A    between atoms: C8_9  and  O1_16
REMARK    5  A    between atoms: C10_11  and  C12_15
REMARK    6  A    between atoms: N1_13  and  C11_14
REMARK    7  A    between atoms: O1_16  and  C13_17
REMARK    8  A    between atoms: C19_23  and  O4_32
REMARK    9  A    between atoms: C21_25  and  O3_30
REMARK   10  A    between atoms: C23_27  and  O2_28
REMARK   11  A    between atoms: O2_28  and  C24_29
REMARK   12  A    between atoms: O3_30  and  C25_31
REMARK   13  A    between atoms: O4_32  and  C26_33
REMARK                            x       y       z     vdW  Elec       q    Type
REMARK                         _______ _______ _______ _____ _____    ______ ____
ROOT
ATOM      1  C   UNL     1      54.950  14.278  19.880  0.00  0.00    +0.038 C 
ATOM      2  C   UNL     1      53.551  14.848  19.633  0.00  0.00    +0.124 C 
ATOM      3  C   UNL     1      53.664  16.301  19.171  0.00  0.00    +0.098 C 
ATOM      4  C   UNL     1      52.300  16.944  19.156  0.00  0.00    -0.039 A 
ATOM      5  C   UNL     1      52.135  18.120  18.438  0.00  0.00    -0.022 A 
ATOM      6  C   UNL     1      50.906  18.752  18.395  0.00  0.00    +0.136 A 
ATOM      9  C   UNL     1      49.820  18.201  19.082  0.00  0.00    -0.064 A 
ATOM     26  C   UNL     1      49.992  17.017  19.801  0.00  0.00    +0.134 A 
ATOM     29  C   UNL     1      51.233  16.390  19.833  0.00  0.00    -0.100 A 
ATOM     30  C   UNL     1      51.365  15.108  20.614  0.00  0.00    +0.221 C 
ATOM     31  C   UNL     1      50.756  13.960  19.807  0.00  0.00    +0.009 C 
ATOM     32  N   UNL     1      52.774  14.810  20.883  0.00  0.00    -0.528 NA
ATOM     33  C   UNL     1      52.923  13.512  21.556  0.00  0.00    +0.191 C 
ENDROOT
BRANCH   9  10
ATOM     10  C   UNL     1      48.499  18.867  19.048  0.00  0.00    -0.118 A 
ATOM     11  C   UNL     1      48.208  19.921  19.946  0.00  0.00    +0.075 A 
ATOM     12  C   UNL     1      49.158  20.355  20.883  0.00  0.00    -0.038 A 
ATOM     13  C   UNL     1      48.855  21.372  21.738  0.00  0.00    +0.079 A 
ATOM     14  C   UNL     1      47.611  21.994  21.699  0.00  0.00    -0.120 A 
ATOM     15  C   UNL     1      46.654  21.596  20.793  0.00  0.00    +0.178 A 
ATOM     18  C   UNL     1      46.940  20.546  19.898  0.00  0.00    -0.124 A 
ATOM     19  C   UNL     1      45.984  20.112  18.956  0.00  0.00    +0.210 A 
ATOM     22  C   UNL     1      46.288  19.085  18.092  0.00  0.00    -0.176 A 
ATOM     23  C   UNL     1      47.536  18.467  18.129  0.00  0.00    +0.202 A 
BRANCH  15  16
ATOM     16  O   UNL     1      45.443  22.209  20.764  0.00  0.00    -0.292 OA
ATOM     17  C   UNL     1      44.790  22.419  22.018  0.00  0.00    +0.239 C 
ENDBRANCH  15  16
BRANCH  19  20
ATOM     20  O   UNL     1      44.764  20.707  18.903  0.00  0.00    -0.285 OA
ATOM     21  C   UNL     1      43.624  19.846  18.873  0.00  0.00    +0.240 C 
ENDBRANCH  19  20
BRANCH  23  24
ATOM     24  O   UNL     1      47.814  17.458  17.261  0.00  0.00    -0.304 OA
ATOM     25  C   UNL     1      46.737  16.583  16.920  0.00  0.00    +0.238 C 
ENDBRANCH  23  24
ENDBRANCH   9  10
BRANCH   6   7
ATOM      7  O   UNL     1      50.755  19.903  17.688  0.00  0.00    -0.488 OA
ATOM      8  H   UNL     1      50.373  19.778  16.808  0.00  0.00    +0.389 HD
ENDBRANCH   6   7
BRANCH  26  27
ATOM     27  O   UNL     1      48.942  16.474  20.473  0.00  0.00    -0.326 OA
ATOM     28  C   UNL     1      48.818  16.802  21.859  0.00  0.00    +0.223 C 
ENDBRANCH  26  27
TORSDOF 6
ENDMDL
MODEL 8
REMARK VINA RESULT:      -4.8      2.373      3.862
REMARK  Name = ZINC95486166
REMARK  13 active torsions:
REMARK  status: ('A' for Active; 'I' for Inactive)
REMARK    1  A    between atoms: C1_1  and  C2_2
REMARK    2  A    between atoms: C6_7  and  O5_34
REMARK    3  A    between atoms: C7_8  and  C14_18
REMARK    4  A    between atoms: C8_9  and  O1_16
REMARK    5  A    between atoms: C10_11  and  C12_15
REMARK    6  A    between atoms: N1_13  and  C11_14
REMARK    7  A    between atoms: O1_16  and  C13_17
REMARK    8  A    between atoms: C19_23  and  O4_32
REMARK    9  A    between atoms: C21_25  and  O3_30
REMARK   10  A    between atoms: C23_27  and  O2_28
REMARK   11  A    between atoms: O2_28  and  C24_29
REMARK   12  A    between atoms: O3_30  and  C25_31
REMARK   13  A    between atoms: O4_32  and  C26_33
REMARK                            x       y       z     vdW  Elec       q    Type
REMARK                         _______ _______ _______ _____ _____    ______ ____
ROOT
ATOM      1  C   UNL     1      52.234  12.519  17.530  0.00  0.00    +0.038 C 
ATOM      2  C   UNL     1      51.013  13.163  18.189  0.00  0.00    +0.124 C 
ATOM      3  C   UNL     1      50.241  13.981  17.153  0.00  0.00    +0.098 C 
ATOM      4  C   UNL     1      49.181  14.808  17.836  0.00  0.00    -0.039 A 
ATOM      5  C   UNL     1      48.156  15.332  17.062  0.00  0.00    -0.022 A 
ATOM      6  C   UNL     1      47.160  16.101  17.637  0.00  0.00    +0.136 A 
ATOM      9  C   UNL     1      47.189  16.353  19.012  0.00  0.00    -0.064 A 
ATOM     26  C   UNL     1      48.222  15.821  19.786  0.00  0.00    +0.134 A 
ATOM     29  C   UNL     1      49.215  15.047  19.194  0.00  0.00    -0.100 A 
ATOM     30  C   UNL     1      50.302  14.487  20.073  0.00  0.00    +0.221 C 
ATOM     31  C   UNL     1      49.758  13.281  20.843  0.00  0.00    +0.009 C 
ATOM     32  N   UNL     1      51.450  14.063  19.269  0.00  0.00    -0.528 NA
ATOM     33  C   UNL     1      52.476  13.423  20.104  0.00  0.00    +0.191 C 
ENDROOT
BRANCH   9  10
ATOM     10  C   UNL     1      46.132  17.176  19.642  0.00  0.00    -0.118 A 
ATOM     11  C   UNL     1      46.230  18.587  19.637  0.00  0.00    +0.075 A 
ATOM     12  C   UNL     1      47.323  19.234  19.038  0.00  0.00    -0.038 A 
ATOM     13  C   UNL     1      47.394  20.595  19.045  0.00  0.00    +0.079 A 
ATOM     14  C   UNL     1      46.396  21.362  19.639  0.00  0.00    -0.120 A 
ATOM     15  C   UNL     1      45.310  20.763  20.235  0.00  0.00    +0.178 A 
ATOM     18  C   UNL     1      45.210  19.358  20.244  0.00  0.00    -0.124 A 
ATOM     19  C   UNL     1      44.111  18.709  20.844  0.00  0.00    +0.210 A 
ATOM     22  C   UNL     1      44.037  17.334  20.838  0.00  0.00    -0.176 A 
ATOM     23  C   UNL     1      45.034  16.568  20.238  0.00  0.00    +0.202 A 
BRANCH  15  16
ATOM     16  O   UNL     1      44.342  21.520  20.813  0.00  0.00    -0.292 OA
ATOM     17  C   UNL     1      44.686  22.866  21.151  0.00  0.00    +0.239 C 
ENDBRANCH  15  16
BRANCH  19  20
ATOM     20  O   UNL     1      43.128  19.441  21.429  0.00  0.00    -0.285 OA
ATOM     21  C   UNL     1      41.783  19.009  21.213  0.00  0.00    +0.240 C 
ENDBRANCH  19  20
BRANCH  23  24
ATOM     24  O   UNL     1      44.935  15.213  20.241  0.00  0.00    -0.304 OA
ATOM     25  C   UNL     1      45.101  14.554  21.498  0.00  0.00    +0.238 C 
ENDBRANCH  23  24
ENDBRANCH   9  10
BRANCH   6   7
ATOM      7  O   UNL     1      46.161  16.609  16.869  0.00  0.00    -0.488 OA
ATOM      8  H   UNL     1      45.769  17.421  17.219  0.00  0.00    +0.389 HD
ENDBRANCH   6   7
BRANCH  26  27
ATOM     27  O   UNL     1      48.258  16.061  21.123  0.00  0.00    -0.326 OA
ATOM     28  C   UNL     1      49.055  17.163  21.564  0.00  0.00    +0.223 C 
ENDBRANCH  26  27
TORSDOF 6
ENDMDL
MODEL 9
REMARK VINA RESULT:      -4.7      2.662      7.297
REMARK  Name = ZINC95486166
REMARK  13 active torsions:
REMARK  status: ('A' for Active; 'I' for Inactive)
REMARK    1  A    between atoms: C1_1  and  C2_2
REMARK    2  A    between atoms: C6_7  and  O5_34
REMARK    3  A    between atoms: C7_8  and  C14_18
REMARK    4  A    between atoms: C8_9  and  O1_16
REMARK    5  A    between atoms: C10_11  and  C12_15
REMARK    6  A    between atoms: N1_13  and  C11_14
REMARK    7  A    between atoms: O1_16  and  C13_17
REMARK    8  A    between atoms: C19_23  and  O4_32
REMARK    9  A    between atoms: C21_25  and  O3_30
REMARK   10  A    between atoms: C23_27  and  O2_28
REMARK   11  A    between atoms: O2_28  and  C24_29
REMARK   12  A    between atoms: O3_30  and  C25_31
REMARK   13  A    between atoms: O4_32  and  C26_33
REMARK                            x       y       z     vdW  Elec       q    Type
REMARK                         _______ _______ _______ _____ _____    ______ ____
ROOT
ATOM      1  C   UNL     1      43.149  22.936  19.312  0.00  0.00    +0.038 C 
ATOM      2  C   UNL     1      43.789  21.602  19.702  0.00  0.00    +0.124 C 
ATOM      3  C   UNL     1      45.209  21.529  19.139  0.00  0.00    +0.098 C 
ATOM      4  C   UNL     1      45.759  20.136  19.309  0.00  0.00    -0.039 A 
ATOM      5  C   UNL     1      47.130  19.952  19.198  0.00  0.00    -0.022 A 
ATOM      6  C   UNL     1      47.686  18.694  19.341  0.00  0.00    +0.136 A 
ATOM      9  C   UNL     1      46.858  17.598  19.599  0.00  0.00    -0.064 A 
ATOM     26  C   UNL     1      45.480  17.789  19.711  0.00  0.00    +0.134 A 
ATOM     29  C   UNL     1      44.935  19.061  19.568  0.00  0.00    -0.100 A 
ATOM     30  C   UNL     1      43.444  19.217  19.709  0.00  0.00    +0.221 C 
ATOM     31  C   UNL     1      43.069  19.175  21.192  0.00  0.00    +0.009 C 
ATOM     32  N   UNL     1      43.002  20.493  19.140  0.00  0.00    -0.528 NA
ATOM     33  C   UNL     1      41.564  20.703  19.360  0.00  0.00    +0.191 C 
ENDROOT
BRANCH   9  10
ATOM     10  C   UNL     1      47.438  16.244  19.752  0.00  0.00    -0.118 A 
ATOM     11  C   UNL     1      47.427  15.337  18.666  0.00  0.00    +0.075 A 
ATOM     12  C   UNL     1      46.870  15.697  17.429  0.00  0.00    -0.038 A 
ATOM     13  C   UNL     1      46.872  14.806  16.398  0.00  0.00    +0.079 A 
ATOM     14  C   UNL     1      47.419  13.535  16.550  0.00  0.00    -0.120 A 
ATOM     15  C   UNL     1      47.975  13.147  17.748  0.00  0.00    +0.178 A 
ATOM     18  C   UNL     1      47.986  14.048  18.831  0.00  0.00    -0.124 A 
ATOM     19  C   UNL     1      48.547  13.685  20.073  0.00  0.00    +0.210 A 
ATOM     22  C   UNL     1      48.547  14.584  21.116  0.00  0.00    -0.176 A 
ATOM     23  C   UNL     1      48.003  15.857  20.961  0.00  0.00    +0.202 A 
BRANCH  15  16
ATOM     16  O   UNL     1      48.506  11.905  17.885  0.00  0.00    -0.292 OA
ATOM     17  C   UNL     1      47.690  10.802  17.484  0.00  0.00    +0.239 C 
ENDBRANCH  15  16
BRANCH  19  20
ATOM     20  O   UNL     1      49.086  12.450  20.240  0.00  0.00    -0.285 OA
ATOM     21  C   UNL     1      48.761  11.759  21.447  0.00  0.00    +0.240 C 
ENDBRANCH  19  20
BRANCH  23  24
ATOM     24  O   UNL     1      48.020  16.728  22.004  0.00  0.00    -0.304 OA
ATOM     25  C   UNL     1      49.301  17.114  22.505  0.00  0.00    +0.238 C 
ENDBRANCH  23  24
ENDBRANCH   9  10
BRANCH   6   7
ATOM      7  O   UNL     1      49.030  18.526  19.231  0.00  0.00    -0.488 OA
ATOM      8  H   UNL     1      49.310  18.128  18.395  0.00  0.00    +0.389 HD
ENDBRANCH   6   7
BRANCH  26  27
ATOM     27  O   UNL     1      44.667  16.729  19.962  0.00  0.00    -0.326 OA
ATOM     28  C   UNL     1      44.577  16.286  21.318  0.00  0.00    +0.223 C 
ENDBRANCH  26  27
TORSDOF 6
ENDMDL
