MODEL 1
REMARK VINA RESULT:      -6.8      0.000      0.000
REMARK  Name = ZINC95486195
REMARK  9 active torsions:
REMARK  status: ('A' for Active; 'I' for Inactive)
REMARK    1  A    between atoms: C1_1  and  C2_2
REMARK    2  A    between atoms: C4_4  and  O4_30
REMARK    3  A    between atoms: C7_7  and  C8_8
REMARK    4  A    between atoms: C9_9  and  O2_23
REMARK    5  A    between atoms: C11_11  and  O1_22
REMARK    6  A    between atoms: C15_15  and  C18_21
REMARK    7  A    between atoms: C16_18  and  C17_20
REMARK    8  A    between atoms: C22_27  and  O3_28
REMARK    9  A    between atoms: O3_28  and  C23_29
REMARK                            x       y       z     vdW  Elec       q    Type
REMARK                         _______ _______ _______ _____ _____    ______ ____
ROOT
ATOM     16  C   UNL     1      44.020  18.620  20.637  0.00  0.00    -0.050 A 
ATOM     17  C   UNL     1      43.372  18.096  21.761  0.00  0.00    +0.171 A 
ATOM     20  C   UNL     1      43.571  16.773  22.109  0.00  0.00    -0.016 A 
ATOM     21  C   UNL     1      44.409  15.976  21.348  0.00  0.00    +0.160 A 
ATOM     24  C   UNL     1      45.057  16.493  20.228  0.00  0.00    -0.164 A 
ATOM     25  C   UNL     1      45.962  15.584  19.438  0.00  0.00    +0.239 C 
ATOM     26  C   UNL     1      45.309  14.206  19.315  0.00  0.00    +0.093 C 
ATOM     27  N   UNL     1      46.182  16.124  18.090  0.00  0.00    -0.504 N 
ATOM     28  H   UNL     1      46.866  15.558  17.609  0.00  0.00    +0.432 HD
ATOM     29  H   UNL     1      45.316  16.123  17.572  0.00  0.00    +0.429 HD
ATOM     30  C   UNL     1      46.682  17.502  18.211  0.00  0.00    +0.180 C 
ATOM     31  C   UNL     1      47.807  17.555  19.246  0.00  0.00    +0.089 C 
ATOM     32  C   UNL     1      45.529  18.402  18.658  0.00  0.00    +0.132 C 
ATOM     33  C   UNL     1      44.859  17.806  19.870  0.00  0.00    -0.041 A 
ENDROOT
BRANCH  16  15
ATOM      1  C   UNL     1      41.709  19.350  19.091  0.00  0.00    +0.095 C 
ATOM      2  C   UNL     1      42.704  20.402  19.512  0.00  0.00    -0.029 A 
ATOM      3  C   UNL     1      42.495  21.728  19.154  0.00  0.00    -0.033 A 
ATOM      4  C   UNL     1      43.388  22.709  19.525  0.00  0.00    +0.171 A 
ATOM      7  C   UNL     1      44.530  22.372  20.277  0.00  0.00    -0.107 A 
ATOM      8  C   UNL     1      44.749  21.023  20.646  0.00  0.00    +0.027 A 
ATOM      9  C   UNL     1      45.885  20.687  21.397  0.00  0.00    -0.041 A 
ATOM     10  C   UNL     1      46.768  21.658  21.765  0.00  0.00    +0.075 A 
ATOM     11  C   UNL     1      46.563  22.987  21.408  0.00  0.00    -0.098 A 
ATOM     12  C   UNL     1      45.458  23.355  20.671  0.00  0.00    +0.165 A 
ATOM     15  C   UNL     1      43.812  20.036  20.256  0.00  0.00    -0.082 A 
BRANCH   4   5
ATOM      5  O   UNL     1      43.168  24.000  19.164  0.00  0.00    -0.480 OA
ATOM      6  H   UNL     1      43.079  24.608  19.912  0.00  0.00    +0.399 HD
ENDBRANCH   4   5
BRANCH  12  13
ATOM     13  O   UNL     1      45.268  24.655  20.328  0.00  0.00    -0.294 OA
ATOM     14  C   UNL     1      46.018  25.633  21.049  0.00  0.00    +0.248 C 
ENDBRANCH  12  13
ENDBRANCH  16  15
BRANCH  17  18
ATOM     18  O   UNL     1      42.552  18.884  22.504  0.00  0.00    -0.480 OA
ATOM     19  H   UNL     1      43.014  19.432  23.154  0.00  0.00    +0.402 HD
ENDBRANCH  17  18
BRANCH  21  22
ATOM     22  O   UNL     1      44.602  14.676  21.696  0.00  0.00    -0.490 OA
ATOM     23  H   UNL     1      43.928  14.073  21.353  0.00  0.00    +0.402 HD
ENDBRANCH  21  22
TORSDOF 5
ENDMDL
MODEL 2
REMARK VINA RESULT:      -6.4      1.978      6.698
REMARK  Name = ZINC95486195
REMARK  9 active torsions:
REMARK  status: ('A' for Active; 'I' for Inactive)
REMARK    1  A    between atoms: C1_1  and  C2_2
REMARK    2  A    between atoms: C4_4  and  O4_30
REMARK    3  A    between atoms: C7_7  and  C8_8
REMARK    4  A    between atoms: C9_9  and  O2_23
REMARK    5  A    between atoms: C11_11  and  O1_22
REMARK    6  A    between atoms: C15_15  and  C18_21
REMARK    7  A    between atoms: C16_18  and  C17_20
REMARK    8  A    between atoms: C22_27  and  O3_28
REMARK    9  A    between atoms: O3_28  and  C23_29
REMARK                            x       y       z     vdW  Elec       q    Type
REMARK                         _______ _______ _______ _____ _____    ______ ____
ROOT
ATOM     16  C   UNL     1      44.404  19.313  20.148  0.00  0.00    -0.050 A 
ATOM     17  C   UNL     1      43.186  19.791  19.654  0.00  0.00    +0.171 A 
ATOM     20  C   UNL     1      42.997  21.152  19.502  0.00  0.00    -0.016 A 
ATOM     21  C   UNL     1      44.011  22.033  19.837  0.00  0.00    +0.160 A 
ATOM     24  C   UNL     1      45.227  21.562  20.329  0.00  0.00    -0.164 A 
ATOM     25  C   UNL     1      46.298  22.563  20.674  0.00  0.00    +0.239 C 
ATOM     26  C   UNL     1      45.659  23.766  21.373  0.00  0.00    +0.093 C 
ATOM     27  N   UNL     1      47.290  21.965  21.578  0.00  0.00    -0.504 N 
ATOM     28  H   UNL     1      48.049  22.614  21.720  0.00  0.00    +0.432 HD
ATOM     29  H   UNL     1      46.860  21.746  22.464  0.00  0.00    +0.429 HD
ATOM     30  C   UNL     1      47.804  20.732  20.961  0.00  0.00    +0.180 C 
ATOM     31  C   UNL     1      48.167  20.997  19.499  0.00  0.00    +0.089 C 
ATOM     32  C   UNL     1      46.715  19.660  21.034  0.00  0.00    +0.132 C 
ATOM     33  C   UNL     1      45.421  20.210  20.491  0.00  0.00    -0.041 A 
ENDROOT
BRANCH  16  15
ATOM      1  C   UNL     1      43.420  17.996  22.505  0.00  0.00    +0.095 C 
ATOM      2  C   UNL     1      44.147  17.210  21.444  0.00  0.00    -0.029 A 
ATOM      3  C   UNL     1      44.334  15.843  21.609  0.00  0.00    -0.033 A 
ATOM      4  C   UNL     1      44.996  15.100  20.656  0.00  0.00    +0.171 A 
ATOM      7  C   UNL     1      45.492  15.728  19.496  0.00  0.00    -0.107 A 
ATOM      8  C   UNL     1      45.304  17.119  19.322  0.00  0.00    +0.027 A 
ATOM      9  C   UNL     1      45.796  17.744  18.166  0.00  0.00    -0.041 A 
ATOM     10  C   UNL     1      46.450  17.010  17.222  0.00  0.00    +0.075 A 
ATOM     11  C   UNL     1      46.640  15.641  17.383  0.00  0.00    -0.098 A 
ATOM     12  C   UNL     1      46.171  14.993  18.505  0.00  0.00    +0.165 A 
ATOM     15  C   UNL     1      44.616  17.857  20.315  0.00  0.00    -0.082 A 
BRANCH   4   5
ATOM      5  O   UNL     1      45.170  13.765  20.835  0.00  0.00    -0.480 OA
ATOM      6  H   UNL     1      46.085  13.509  21.018  0.00  0.00    +0.399 HD
ENDBRANCH   4   5
BRANCH  12  13
ATOM     13  O   UNL     1      46.361  13.656  18.653  0.00  0.00    -0.294 OA
ATOM     14  C   UNL     1      45.928  12.817  17.581  0.00  0.00    +0.248 C 
ENDBRANCH  12  13
ENDBRANCH  16  15
BRANCH  17  18
ATOM     18  O   UNL     1      42.196  18.921  19.325  0.00  0.00    -0.480 OA
ATOM     19  H   UNL     1      42.503  18.020  19.153  0.00  0.00    +0.402 HD
ENDBRANCH  17  18
BRANCH  21  22
ATOM     22  O   UNL     1      43.819  23.370  19.685  0.00  0.00    -0.490 OA
ATOM     23  H   UNL     1      44.572  23.834  19.292  0.00  0.00    +0.402 HD
ENDBRANCH  21  22
TORSDOF 5
ENDMDL
MODEL 3
REMARK VINA RESULT:      -6.4      2.111      6.753
REMARK  Name = ZINC95486195
REMARK  9 active torsions:
REMARK  status: ('A' for Active; 'I' for Inactive)
REMARK    1  A    between atoms: C1_1  and  C2_2
REMARK    2  A    between atoms: C4_4  and  O4_30
REMARK    3  A    between atoms: C7_7  and  C8_8
REMARK    4  A    between atoms: C9_9  and  O2_23
REMARK    5  A    between atoms: C11_11  and  O1_22
REMARK    6  A    between atoms: C15_15  and  C18_21
REMARK    7  A    between atoms: C16_18  and  C17_20
REMARK    8  A    between atoms: C22_27  and  O3_28
REMARK    9  A    between atoms: O3_28  and  C23_29
REMARK                            x       y       z     vdW  Elec       q    Type
REMARK                         _______ _______ _______ _____ _____    ______ ____
ROOT
ATOM     16  C   UNL     1      44.726  19.349  20.567  0.00  0.00    -0.050 A 
ATOM     17  C   UNL     1      45.628  20.073  21.353  0.00  0.00    +0.171 A 
ATOM     20  C   UNL     1      45.445  21.433  21.525  0.00  0.00    -0.016 A 
ATOM     21  C   UNL     1      44.373  22.069  20.922  0.00  0.00    +0.160 A 
ATOM     24  C   UNL     1      43.471  21.351  20.138  0.00  0.00    -0.164 A 
ATOM     25  C   UNL     1      42.320  22.090  19.508  0.00  0.00    +0.239 C 
ATOM     26  C   UNL     1      42.815  23.438  18.978  0.00  0.00    +0.093 C 
ATOM     27  N   UNL     1      41.765  21.318  18.388  0.00  0.00    -0.504 N 
ATOM     28  H   UNL     1      40.936  21.778  18.041  0.00  0.00    +0.432 HD
ATOM     29  H   UNL     1      42.447  21.244  17.648  0.00  0.00    +0.429 HD
ATOM     30  C   UNL     1      41.415  19.974  18.871  0.00  0.00    +0.180 C 
ATOM     31  C   UNL     1      40.635  20.081  20.182  0.00  0.00    +0.089 C 
ATOM     32  C   UNL     1      42.707  19.188  19.104  0.00  0.00    +0.132 C 
ATOM     33  C   UNL     1      43.650  19.999  19.955  0.00  0.00    -0.041 A 
ENDROOT
BRANCH  16  15
ATOM      1  C   UNL     1      43.629  17.514  22.489  0.00  0.00    +0.095 C 
ATOM      2  C   UNL     1      44.391  16.998  21.295  0.00  0.00    -0.029 A 
ATOM      3  C   UNL     1      44.555  15.628  21.125  0.00  0.00    -0.033 A 
ATOM      4  C   UNL     1      45.247  15.128  20.044  0.00  0.00    +0.171 A 
ATOM      7  C   UNL     1      45.798  16.010  19.093  0.00  0.00    -0.107 A 
ATOM      8  C   UNL     1      45.634  17.406  19.260  0.00  0.00    +0.027 A 
ATOM      9  C   UNL     1      46.180  18.284  18.313  0.00  0.00    -0.041 A 
ATOM     10  C   UNL     1      46.864  17.790  17.242  0.00  0.00    +0.075 A 
ATOM     11  C   UNL     1      47.031  16.420  17.068  0.00  0.00    -0.098 A 
ATOM     12  C   UNL     1      46.508  15.526  17.978  0.00  0.00    +0.165 A 
ATOM     15  C   UNL     1      44.914  17.892  20.378  0.00  0.00    -0.082 A 
BRANCH   4   5
ATOM      5  O   UNL     1      45.398  13.786  19.895  0.00  0.00    -0.480 OA
ATOM      6  H   UNL     1      45.512  13.309  20.728  0.00  0.00    +0.399 HD
ENDBRANCH   4   5
BRANCH  12  13
ATOM     13  O   UNL     1      46.677  14.191  17.799  0.00  0.00    -0.294 OA
ATOM     14  C   UNL     1      46.896  13.738  16.462  0.00  0.00    +0.248 C 
ENDBRANCH  12  13
ENDBRANCH  16  15
BRANCH  17  18
ATOM     18  O   UNL     1      46.676  19.444  21.944  0.00  0.00    -0.480 OA
ATOM     19  H   UNL     1      47.537  19.673  21.567  0.00  0.00    +0.402 HD
ENDBRANCH  17  18
BRANCH  21  22
ATOM     22  O   UNL     1      44.197  23.406  21.094  0.00  0.00    -0.490 OA
ATOM     23  H   UNL     1      44.906  23.947  20.721  0.00  0.00    +0.402 HD
ENDBRANCH  21  22
TORSDOF 5
ENDMDL
MODEL 4
REMARK VINA RESULT:      -6.2      3.441      6.860
REMARK  Name = ZINC95486195
REMARK  9 active torsions:
REMARK  status: ('A' for Active; 'I' for Inactive)
REMARK    1  A    between atoms: C1_1  and  C2_2
REMARK    2  A    between atoms: C4_4  and  O4_30
REMARK    3  A    between atoms: C7_7  and  C8_8
REMARK    4  A    between atoms: C9_9  and  O2_23
REMARK    5  A    between atoms: C11_11  and  O1_22
REMARK    6  A    between atoms: C15_15  and  C18_21
REMARK    7  A    between atoms: C16_18  and  C17_20
REMARK    8  A    between atoms: C22_27  and  O3_28
REMARK    9  A    between atoms: O3_28  and  C23_29
REMARK                            x       y       z     vdW  Elec       q    Type
REMARK                         _______ _______ _______ _____ _____    ______ ____
ROOT
ATOM     16  C   UNL     1      47.423  20.655  20.873  0.00  0.00    -0.050 A 
ATOM     17  C   UNL     1      47.825  21.638  21.783  0.00  0.00    +0.171 A 
ATOM     20  C   UNL     1      46.971  22.685  22.080  0.00  0.00    -0.016 A 
ATOM     21  C   UNL     1      45.726  22.754  21.477  0.00  0.00    +0.160 A 
ATOM     24  C   UNL     1      45.321  21.777  20.570  0.00  0.00    -0.164 A 
ATOM     25  C   UNL     1      43.955  21.897  19.947  0.00  0.00    +0.239 C 
ATOM     26  C   UNL     1      43.691  23.361  19.588  0.00  0.00    +0.093 C 
ATOM     27  N   UNL     1      43.875  21.090  18.722  0.00  0.00    -0.504 N 
ATOM     28  H   UNL     1      42.929  21.102  18.373  0.00  0.00    +0.432 HD
ATOM     29  H   UNL     1      44.501  21.461  18.023  0.00  0.00    +0.429 HD
ATOM     30  C   UNL     1      44.262  19.708  19.044  0.00  0.00    +0.180 C 
ATOM     31  C   UNL     1      43.535  19.247  20.309  0.00  0.00    +0.089 C 
ATOM     32  C   UNL     1      45.774  19.666  19.277  0.00  0.00    +0.132 C 
ATOM     33  C   UNL     1      46.167  20.736  20.264  0.00  0.00    -0.041 A 
ENDROOT
BRANCH  16  15
ATOM      1  C   UNL     1      47.200  18.188  22.330  0.00  0.00    +0.095 C 
ATOM      2  C   UNL     1      48.234  18.337  21.243  0.00  0.00    -0.029 A 
ATOM      3  C   UNL     1      49.076  17.272  20.945  0.00  0.00    -0.033 A 
ATOM      4  C   UNL     1      50.030  17.381  19.957  0.00  0.00    +0.171 A 
ATOM      7  C   UNL     1      50.159  18.584  19.235  0.00  0.00    -0.107 A 
ATOM      8  C   UNL     1      49.305  19.671  19.533  0.00  0.00    +0.027 A 
ATOM      9  C   UNL     1      49.433  20.868  18.813  0.00  0.00    -0.041 A 
ATOM     10  C   UNL     1      50.376  20.976  17.835  0.00  0.00    +0.075 A 
ATOM     11  C   UNL     1      51.221  19.913  17.533  0.00  0.00    -0.098 A 
ATOM     12  C   UNL     1      51.125  18.721  18.219  0.00  0.00    +0.165 A 
ATOM     15  C   UNL     1      48.330  19.531  20.550  0.00  0.00    -0.082 A 
BRANCH   4   5
ATOM      5  O   UNL     1      50.844  16.330  19.680  0.00  0.00    -0.480 OA
ATOM      6  H   UNL     1      51.555  16.536  19.058  0.00  0.00    +0.399 HD
ENDBRANCH   4   5
BRANCH  12  13
ATOM     13  O   UNL     1      51.954  17.689  17.917  0.00  0.00    -0.294 OA
ATOM     14  C   UNL     1      51.859  17.145  16.599  0.00  0.00    +0.248 C 
ENDBRANCH  12  13
ENDBRANCH  16  15
BRANCH  17  18
ATOM     18  O   UNL     1      49.046  21.564  22.372  0.00  0.00    -0.480 OA
ATOM     19  H   UNL     1      49.713  22.137  21.970  0.00  0.00    +0.402 HD
ENDBRANCH  17  18
BRANCH  21  22
ATOM     22  O   UNL     1      44.890  23.785  21.773  0.00  0.00    -0.490 OA
ATOM     23  H   UNL     1      45.284  24.660  21.646  0.00  0.00    +0.402 HD
ENDBRANCH  21  22
TORSDOF 5
ENDMDL
MODEL 5
REMARK VINA RESULT:      -6.1      3.476      5.531
REMARK  Name = ZINC95486195
REMARK  9 active torsions:
REMARK  status: ('A' for Active; 'I' for Inactive)
REMARK    1  A    between atoms: C1_1  and  C2_2
REMARK    2  A    between atoms: C4_4  and  O4_30
REMARK    3  A    between atoms: C7_7  and  C8_8
REMARK    4  A    between atoms: C9_9  and  O2_23
REMARK    5  A    between atoms: C11_11  and  O1_22
REMARK    6  A    between atoms: C15_15  and  C18_21
REMARK    7  A    between atoms: C16_18  and  C17_20
REMARK    8  A    between atoms: C22_27  and  O3_28
REMARK    9  A    between atoms: O3_28  and  C23_29
REMARK                            x       y       z     vdW  Elec       q    Type
REMARK                         _______ _______ _______ _____ _____    ______ ____
ROOT
ATOM     16  C   UNL     1      49.087  19.059  19.867  0.00  0.00    -0.050 A 
ATOM     17  C   UNL     1      49.004  17.747  20.345  0.00  0.00    +0.171 A 
ATOM     20  C   UNL     1      49.834  16.774  19.817  0.00  0.00    -0.016 A 
ATOM     21  C   UNL     1      50.740  17.102  18.824  0.00  0.00    +0.160 A 
ATOM     24  C   UNL     1      50.827  18.409  18.345  0.00  0.00    -0.164 A 
ATOM     25  C   UNL     1      51.833  18.713  17.267  0.00  0.00    +0.239 C 
ATOM     26  C   UNL     1      51.838  17.573  16.245  0.00  0.00    +0.093 C 
ATOM     27  N   UNL     1      51.486  19.963  16.577  0.00  0.00    -0.504 N 
ATOM     28  H   UNL     1      52.220  20.203  15.927  0.00  0.00    +0.432 HD
ATOM     29  H   UNL     1      50.616  19.852  16.080  0.00  0.00    +0.429 HD
ATOM     30  C   UNL     1      51.348  21.030  17.580  0.00  0.00    +0.180 C 
ATOM     31  C   UNL     1      52.538  20.995  18.540  0.00  0.00    +0.089 C 
ATOM     32  C   UNL     1      50.052  20.802  18.359  0.00  0.00    +0.132 C 
ATOM     33  C   UNL     1      50.000  19.381  18.858  0.00  0.00    -0.041 A 
ENDROOT
BRANCH  16  15
ATOM      1  C   UNL     1      50.034  20.717  22.016  0.00  0.00    +0.095 C 
ATOM      2  C   UNL     1      48.647  20.913  21.460  0.00  0.00    -0.029 A 
ATOM      3  C   UNL     1      47.829  21.904  21.990  0.00  0.00    -0.033 A 
ATOM      4  C   UNL     1      46.556  22.105  21.502  0.00  0.00    +0.171 A 
ATOM      7  C   UNL     1      46.070  21.299  20.453  0.00  0.00    -0.107 A 
ATOM      8  C   UNL     1      46.898  20.289  19.910  0.00  0.00    +0.027 A 
ATOM      9  C   UNL     1      46.415  19.488  18.864  0.00  0.00    -0.041 A 
ATOM     10  C   UNL     1      45.157  19.686  18.381  0.00  0.00    +0.075 A 
ATOM     11  C   UNL     1      44.334  20.678  18.907  0.00  0.00    -0.098 A 
ATOM     12  C   UNL     1      44.774  21.484  19.935  0.00  0.00    +0.165 A 
ATOM     15  C   UNL     1      48.203  20.107  20.426  0.00  0.00    -0.082 A 
BRANCH   4   5
ATOM      5  O   UNL     1      45.771  23.078  22.032  0.00  0.00    -0.480 OA
ATOM      6  H   UNL     1      44.833  22.846  22.077  0.00  0.00    +0.399 HD
ENDBRANCH   4   5
BRANCH  12  13
ATOM     13  O   UNL     1      43.964  22.449  20.442  0.00  0.00    -0.294 OA
ATOM     14  C   UNL     1      43.212  23.223  19.506  0.00  0.00    +0.248 C 
ENDBRANCH  12  13
ENDBRANCH  16  15
BRANCH  17  18
ATOM     18  O   UNL     1      48.115  17.432  21.321  0.00  0.00    -0.480 OA
ATOM     19  H   UNL     1      48.403  17.675  22.212  0.00  0.00    +0.402 HD
ENDBRANCH  17  18
BRANCH  21  22
ATOM     22  O   UNL     1      51.554  16.142  18.309  0.00  0.00    -0.490 OA
ATOM     23  H   UNL     1      51.900  16.350  17.430  0.00  0.00    +0.402 HD
ENDBRANCH  21  22
TORSDOF 5
ENDMDL
MODEL 6
REMARK VINA RESULT:      -5.9      3.172      6.038
REMARK  Name = ZINC95486195
REMARK  9 active torsions:
REMARK  status: ('A' for Active; 'I' for Inactive)
REMARK    1  A    between atoms: C1_1  and  C2_2
REMARK    2  A    between atoms: C4_4  and  O4_30
REMARK    3  A    between atoms: C7_7  and  C8_8
REMARK    4  A    between atoms: C9_9  and  O2_23
REMARK    5  A    between atoms: C11_11  and  O1_22
REMARK    6  A    between atoms: C15_15  and  C18_21
REMARK    7  A    between atoms: C16_18  and  C17_20
REMARK    8  A    between atoms: C22_27  and  O3_28
REMARK    9  A    between atoms: O3_28  and  C23_29
REMARK                            x       y       z     vdW  Elec       q    Type
REMARK                         _______ _______ _______ _____ _____    ______ ____
ROOT
ATOM     16  C   UNL     1      47.568  17.660  19.017  0.00  0.00    -0.050 A 
ATOM     17  C   UNL     1      47.680  16.988  17.795  0.00  0.00    +0.171 A 
ATOM     20  C   UNL     1      48.767  17.236  16.977  0.00  0.00    -0.016 A 
ATOM     21  C   UNL     1      49.736  18.144  17.370  0.00  0.00    +0.160 A 
ATOM     24  C   UNL     1      49.628  18.815  18.587  0.00  0.00    -0.164 A 
ATOM     25  C   UNL     1      50.712  19.789  18.968  0.00  0.00    +0.239 C 
ATOM     26  C   UNL     1      51.118  20.600  17.736  0.00  0.00    +0.093 C 
ATOM     27  N   UNL     1      50.232  20.713  20.004  0.00  0.00    -0.504 N 
ATOM     28  H   UNL     1      50.996  21.293  20.318  0.00  0.00    +0.432 HD
ATOM     29  H   UNL     1      49.496  21.294  19.633  0.00  0.00    +0.429 HD
ATOM     30  C   UNL     1      49.715  19.926  21.134  0.00  0.00    +0.180 C 
ATOM     31  C   UNL     1      50.714  18.826  21.498  0.00  0.00    +0.089 C 
ATOM     32  C   UNL     1      48.384  19.295  20.720  0.00  0.00    +0.132 C 
ATOM     33  C   UNL     1      48.547  18.580  19.403  0.00  0.00    -0.041 A 
ENDROOT
BRANCH  16  15
ATOM      1  C   UNL     1      47.709  15.548  20.961  0.00  0.00    +0.095 C 
ATOM      2  C   UNL     1      46.462  16.387  20.841  0.00  0.00    -0.029 A 
ATOM      3  C   UNL     1      45.382  16.137  21.679  0.00  0.00    -0.033 A 
ATOM      4  C   UNL     1      44.230  16.887  21.591  0.00  0.00    +0.171 A 
ATOM      7  C   UNL     1      44.138  17.923  20.640  0.00  0.00    -0.107 A 
ATOM      8  C   UNL     1      45.234  18.183  19.784  0.00  0.00    +0.027 A 
ATOM      9  C   UNL     1      45.144  19.216  18.839  0.00  0.00    -0.041 A 
ATOM     10  C   UNL     1      44.005  19.959  18.751  0.00  0.00    +0.075 A 
ATOM     11  C   UNL     1      42.921  19.713  19.589  0.00  0.00    -0.098 A 
ATOM     12  C   UNL     1      42.973  18.707  20.529  0.00  0.00    +0.165 A 
ATOM     15  C   UNL     1      46.408  17.400  19.900  0.00  0.00    -0.082 A 
BRANCH   4   5
ATOM      5  O   UNL     1      43.185  16.628  22.418  0.00  0.00    -0.480 OA
ATOM      6  H   UNL     1      43.318  16.933  23.327  0.00  0.00    +0.399 HD
ENDBRANCH   4   5
BRANCH  12  13
ATOM     13  O   UNL     1      41.910  18.474  21.342  0.00  0.00    -0.294 OA
ATOM     14  C   UNL     1      40.708  19.193  21.059  0.00  0.00    +0.248 C 
ENDBRANCH  12  13
ENDBRANCH  16  15
BRANCH  17  18
ATOM     18  O   UNL     1      46.728  16.097  17.416  0.00  0.00    -0.480 OA
ATOM     19  H   UNL     1      45.887  16.196  17.884  0.00  0.00    +0.402 HD
ENDBRANCH  17  18
BRANCH  21  22
ATOM     22  O   UNL     1      50.802  18.384  16.562  0.00  0.00    -0.490 OA
ATOM     23  H   UNL     1      50.906  17.742  15.846  0.00  0.00    +0.402 HD
ENDBRANCH  21  22
TORSDOF 5
ENDMDL
MODEL 7
REMARK VINA RESULT:      -5.9      3.647      6.456
REMARK  Name = ZINC95486195
REMARK  9 active torsions:
REMARK  status: ('A' for Active; 'I' for Inactive)
REMARK    1  A    between atoms: C1_1  and  C2_2
REMARK    2  A    between atoms: C4_4  and  O4_30
REMARK    3  A    between atoms: C7_7  and  C8_8
REMARK    4  A    between atoms: C9_9  and  O2_23
REMARK    5  A    between atoms: C11_11  and  O1_22
REMARK    6  A    between atoms: C15_15  and  C18_21
REMARK    7  A    between atoms: C16_18  and  C17_20
REMARK    8  A    between atoms: C22_27  and  O3_28
REMARK    9  A    between atoms: O3_28  and  C23_29
REMARK                            x       y       z     vdW  Elec       q    Type
REMARK                         _______ _______ _______ _____ _____    ______ ____
ROOT
ATOM     16  C   UNL     1      48.740  17.921  18.714  0.00  0.00    -0.050 A 
ATOM     17  C   UNL     1      48.942  17.554  17.380  0.00  0.00    +0.171 A 
ATOM     20  C   UNL     1      50.147  17.841  16.766  0.00  0.00    -0.016 A 
ATOM     21  C   UNL     1      51.147  18.488  17.474  0.00  0.00    +0.160 A 
ATOM     24  C   UNL     1      50.950  18.855  18.804  0.00  0.00    -0.164 A 
ATOM     25  C   UNL     1      52.072  19.552  19.529  0.00  0.00    +0.239 C 
ATOM     26  C   UNL     1      52.721  20.572  18.592  0.00  0.00    +0.093 C 
ATOM     27  N   UNL     1      51.559  20.257  20.712  0.00  0.00    -0.504 N 
ATOM     28  H   UNL     1      52.333  20.635  21.239  0.00  0.00    +0.432 HD
ATOM     29  H   UNL     1      50.945  21.005  20.428  0.00  0.00    +0.429 HD
ATOM     30  C   UNL     1      50.817  19.299  21.546  0.00  0.00    +0.180 C 
ATOM     31  C   UNL     1      51.636  18.019  21.718  0.00  0.00    +0.089 C 
ATOM     32  C   UNL     1      49.493  18.973  20.852  0.00  0.00    +0.132 C 
ATOM     33  C   UNL     1      49.751  18.580  19.420  0.00  0.00    -0.041 A 
ENDROOT
BRANCH  16  15
ATOM      1  C   UNL     1      48.398  15.407  20.064  0.00  0.00    +0.095 C 
ATOM      2  C   UNL     1      47.274  16.411  20.033  0.00  0.00    -0.029 A 
ATOM      3  C   UNL     1      46.072  16.116  20.666  0.00  0.00    -0.033 A 
ATOM      4  C   UNL     1      45.028  17.015  20.653  0.00  0.00    +0.171 A 
ATOM      7  C   UNL     1      45.173  18.250  19.991  0.00  0.00    -0.107 A 
ATOM      8  C   UNL     1      46.394  18.557  19.345  0.00  0.00    +0.027 A 
ATOM      9  C   UNL     1      46.539  19.788  18.688  0.00  0.00    -0.041 A 
ATOM     10  C   UNL     1      45.506  20.678  18.675  0.00  0.00    +0.075 A 
ATOM     11  C   UNL     1      44.302  20.387  19.308  0.00  0.00    -0.098 A 
ATOM     12  C   UNL     1      44.122  19.188  19.963  0.00  0.00    +0.165 A 
ATOM     15  C   UNL     1      47.452  17.617  19.379  0.00  0.00    -0.082 A 
BRANCH   4   5
ATOM      5  O   UNL     1      43.860  16.709  21.276  0.00  0.00    -0.480 OA
ATOM      6  H   UNL     1      43.079  16.798  20.712  0.00  0.00    +0.399 HD
ENDBRANCH   4   5
BRANCH  12  13
ATOM     13  O   UNL     1      42.942  18.914  20.577  0.00  0.00    -0.294 OA
ATOM     14  C   UNL     1      41.751  19.346  19.916  0.00  0.00    +0.248 C 
ENDBRANCH  12  13
ENDBRANCH  16  15
BRANCH  17  18
ATOM     18  O   UNL     1      47.959  16.918  16.691  0.00  0.00    -0.480 OA
ATOM     19  H   UNL     1      47.112  17.385  16.691  0.00  0.00    +0.402 HD
ENDBRANCH  17  18
BRANCH  21  22
ATOM     22  O   UNL     1      52.330  18.767  16.867  0.00  0.00    -0.490 OA
ATOM     23  H   UNL     1      52.983  18.056  16.930  0.00  0.00    +0.402 HD
ENDBRANCH  21  22
TORSDOF 5
ENDMDL
MODEL 8
REMARK VINA RESULT:      -5.8      3.950      7.738
REMARK  Name = ZINC95486195
REMARK  9 active torsions:
REMARK  status: ('A' for Active; 'I' for Inactive)
REMARK    1  A    between atoms: C1_1  and  C2_2
REMARK    2  A    between atoms: C4_4  and  O4_30
REMARK    3  A    between atoms: C7_7  and  C8_8
REMARK    4  A    between atoms: C9_9  and  O2_23
REMARK    5  A    between atoms: C11_11  and  O1_22
REMARK    6  A    between atoms: C15_15  and  C18_21
REMARK    7  A    between atoms: C16_18  and  C17_20
REMARK    8  A    between atoms: C22_27  and  O3_28
REMARK    9  A    between atoms: O3_28  and  C23_29
REMARK                            x       y       z     vdW  Elec       q    Type
REMARK                         _______ _______ _______ _____ _____    ______ ____
ROOT
ATOM     16  C   UNL     1      49.049  20.220  19.855  0.00  0.00    -0.050 A 
ATOM     17  C   UNL     1      49.677  20.702  21.008  0.00  0.00    +0.171 A 
ATOM     20  C   UNL     1      48.968  21.495  21.891  0.00  0.00    -0.016 A 
ATOM     21  C   UNL     1      47.644  21.806  21.632  0.00  0.00    +0.160 A 
ATOM     24  C   UNL     1      47.014  21.328  20.485  0.00  0.00    -0.164 A 
ATOM     25  C   UNL     1      45.571  21.692  20.253  0.00  0.00    +0.239 C 
ATOM     26  C   UNL     1      45.354  23.159  20.631  0.00  0.00    +0.093 C 
ATOM     27  N   UNL     1      45.216  21.512  18.839  0.00  0.00    -0.504 N 
ATOM     28  H   UNL     1      44.225  21.664  18.719  0.00  0.00    +0.432 HD
ATOM     29  H   UNL     1      45.731  22.165  18.268  0.00  0.00    +0.429 HD
ATOM     30  C   UNL     1      45.553  20.137  18.441  0.00  0.00    +0.180 C 
ATOM     31  C   UNL     1      45.032  19.151  19.488  0.00  0.00    +0.089 C 
ATOM     32  C   UNL     1      47.075  20.019  18.337  0.00  0.00    +0.132 C 
ATOM     33  C   UNL     1      47.714  20.545  19.596  0.00  0.00    -0.041 A 
ENDROOT
BRANCH  16  15
ATOM      1  C   UNL     1      50.708  21.452  17.856  0.00  0.00    +0.095 C 
ATOM      2  C   UNL     1      50.604  19.950  17.936  0.00  0.00    -0.029 A 
ATOM      3  C   UNL     1      51.318  19.164  17.041  0.00  0.00    -0.033 A 
ATOM      4  C   UNL     1      51.242  17.789  17.090  0.00  0.00    +0.171 A 
ATOM      7  C   UNL     1      50.430  17.165  18.058  0.00  0.00    -0.107 A 
ATOM      8  C   UNL     1      49.700  17.960  18.973  0.00  0.00    +0.027 A 
ATOM      9  C   UNL     1      48.893  17.339  19.938  0.00  0.00    -0.041 A 
ATOM     10  C   UNL     1      48.817  15.980  19.988  0.00  0.00    +0.075 A 
ATOM     11  C   UNL     1      49.531  15.188  19.094  0.00  0.00    -0.098 A 
ATOM     12  C   UNL     1      50.334  15.762  18.132  0.00  0.00    +0.165 A 
ATOM     15  C   UNL     1      49.801  19.370  18.903  0.00  0.00    -0.082 A 
BRANCH   4   5
ATOM      5  O   UNL     1      51.947  17.036  16.206  0.00  0.00    -0.480 OA
ATOM      6  H   UNL     1      52.699  17.497  15.810  0.00  0.00    +0.399 HD
ENDBRANCH   4   5
BRANCH  12  13
ATOM     13  O   UNL     1      51.027  14.981  17.264  0.00  0.00    -0.294 OA
ATOM     14  C   UNL     1      50.295  13.957  16.587  0.00  0.00    +0.248 C 
ENDBRANCH  12  13
ENDBRANCH  16  15
BRANCH  17  18
ATOM     18  O   UNL     1      50.976  20.392  21.258  0.00  0.00    -0.480 OA
ATOM     19  H   UNL     1      51.253  19.537  20.901  0.00  0.00    +0.402 HD
ENDBRANCH  17  18
BRANCH  21  22
ATOM     22  O   UNL     1      46.951  22.585  22.504  0.00  0.00    -0.490 OA
ATOM     23  H   UNL     1      46.278  22.109  23.009  0.00  0.00    +0.402 HD
ENDBRANCH  21  22
TORSDOF 5
ENDMDL
MODEL 9
REMARK VINA RESULT:      -5.7      3.194      4.621
REMARK  Name = ZINC95486195
REMARK  9 active torsions:
REMARK  status: ('A' for Active; 'I' for Inactive)
REMARK    1  A    between atoms: C1_1  and  C2_2
REMARK    2  A    between atoms: C4_4  and  O4_30
REMARK    3  A    between atoms: C7_7  and  C8_8
REMARK    4  A    between atoms: C9_9  and  O2_23
REMARK    5  A    between atoms: C11_11  and  O1_22
REMARK    6  A    between atoms: C15_15  and  C18_21
REMARK    7  A    between atoms: C16_18  and  C17_20
REMARK    8  A    between atoms: C22_27  and  O3_28
REMARK    9  A    between atoms: O3_28  and  C23_29
REMARK                            x       y       z     vdW  Elec       q    Type
REMARK                         _______ _______ _______ _____ _____    ______ ____
ROOT
ATOM     16  C   UNL     1      48.560  18.731  19.883  0.00  0.00    -0.050 A 
ATOM     17  C   UNL     1      48.315  17.583  20.642  0.00  0.00    +0.171 A 
ATOM     20  C   UNL     1      49.317  16.643  20.804  0.00  0.00    -0.016 A 
ATOM     21  C   UNL     1      50.555  16.844  20.217  0.00  0.00    +0.160 A 
ATOM     24  C   UNL     1      50.804  17.987  19.460  0.00  0.00    -0.164 A 
ATOM     25  C   UNL     1      52.169  18.159  18.847  0.00  0.00    +0.239 C 
ATOM     26  C   UNL     1      52.646  16.814  18.294  0.00  0.00    +0.093 C 
ATOM     27  N   UNL     1      52.121  19.131  17.747  0.00  0.00    -0.504 N 
ATOM     28  H   UNL     1      53.057  19.308  17.413  0.00  0.00    +0.432 HD
ATOM     29  H   UNL     1      51.554  18.772  16.994  0.00  0.00    +0.429 HD
ATOM     30  C   UNL     1      51.534  20.382  18.251  0.00  0.00    +0.180 C 
ATOM     31  C   UNL     1      52.192  20.765  19.577  0.00  0.00    +0.089 C 
ATOM     32  C   UNL     1      50.034  20.166  18.464  0.00  0.00    +0.132 C 
ATOM     33  C   UNL     1      49.811  18.923  19.287  0.00  0.00    -0.041 A 
ENDROOT
BRANCH  16  15
ATOM      1  C   UNL     1      46.661  18.428  17.747  0.00  0.00    +0.095 C 
ATOM      2  C   UNL     1      46.572  19.609  18.680  0.00  0.00    -0.029 A 
ATOM      3  C   UNL     1      45.563  20.548  18.505  0.00  0.00    -0.033 A 
ATOM      4  C   UNL     1      45.458  21.637  19.343  0.00  0.00    +0.171 A 
ATOM      7  C   UNL     1      46.383  21.807  20.392  0.00  0.00    -0.107 A 
ATOM      8  C   UNL     1      47.412  20.855  20.576  0.00  0.00    +0.027 A 
ATOM      9  C   UNL     1      48.332  21.023  21.622  0.00  0.00    -0.041 A 
ATOM     10  C   UNL     1      48.229  22.100  22.451  0.00  0.00    +0.075 A 
ATOM     11  C   UNL     1      47.219  23.043  22.280  0.00  0.00    -0.098 A 
ATOM     12  C   UNL     1      46.298  22.910  21.264  0.00  0.00    +0.165 A 
ATOM     15  C   UNL     1      47.494  19.743  19.704  0.00  0.00    -0.082 A 
BRANCH   4   5
ATOM      5  O   UNL     1      44.465  22.545  19.157  0.00  0.00    -0.480 OA
ATOM      6  H   UNL     1      44.141  22.947  19.975  0.00  0.00    +0.399 HD
ENDBRANCH   4   5
BRANCH  12  13
ATOM     13  O   UNL     1      45.317  23.836  21.105  0.00  0.00    -0.294 OA
ATOM     14  C   UNL     1      45.729  25.186  20.886  0.00  0.00    +0.248 C 
ENDBRANCH  12  13
ENDBRANCH  16  15
BRANCH  17  18
ATOM     18  O   UNL     1      47.099  17.392  21.218  0.00  0.00    -0.480 OA
ATOM     19  H   UNL     1      46.483  16.881  20.676  0.00  0.00    +0.402 HD
ENDBRANCH  17  18
BRANCH  21  22
ATOM     22  O   UNL     1      51.536  15.918  20.380  0.00  0.00    -0.490 OA
ATOM     23  H   UNL     1      52.028  16.006  21.208  0.00  0.00    +0.402 HD
ENDBRANCH  21  22
TORSDOF 5
ENDMDL
