MODEL 1
REMARK VINA RESULT:      -6.4      0.000      0.000
REMARK  Name = ZINC95486080
REMARK  5 active torsions:
REMARK  status: ('A' for Active; 'I' for Inactive)
REMARK    1  A    between atoms: C1_1  and  C2_2
REMARK    2  A    between atoms: C2_2  and  C20_25
REMARK    3  A    between atoms: C3_3  and  C4_4
REMARK    4  A    between atoms: C4_4  and  C5_5
REMARK    5  A    between atoms: C6_6  and  O3_24
REMARK                            x       y       z     vdW  Elec       q    Type
REMARK                         _______ _______ _______ _____ _____    ______ ____
ROOT
ATOM      6  C   UNL     1      44.966  20.296  20.450  0.00  0.00    -0.109 A 
ATOM      7  C   UNL     1      43.908  19.401  20.580  0.00  0.00    +0.145 A 
ATOM     10  C   UNL     1      44.001  18.095  20.130  0.00  0.00    -0.032 A 
ATOM     11  C   UNL     1      45.155  17.620  19.521  0.00  0.00    +0.090 A 
ATOM     12  C   UNL     1      46.207  18.499  19.384  0.00  0.00    -0.161 A 
ATOM     13  C   UNL     1      47.558  18.373  18.786  0.00  0.00    -0.017 C 
ATOM     14  C   UNL     1      48.350  17.103  18.979  0.00  0.00    +0.276 C 
ATOM     15  O   UNL     1      49.725  17.351  18.668  0.00  0.00    -0.323 OA
ATOM     16  C   UNL     1      50.178  18.576  18.310  0.00  0.00    +0.140 A 
ATOM     17  C   UNL     1      49.527  19.752  18.739  0.00  0.00    -0.159 A 
ATOM     18  C   UNL     1      49.996  20.997  18.415  0.00  0.00    +0.072 A 
ATOM     19  C   UNL     1      51.129  21.122  17.626  0.00  0.00    -0.018 A 
ATOM     20  C   UNL     1      51.776  19.990  17.169  0.00  0.00    +0.053 A 
ATOM     21  C   UNL     1      51.302  18.708  17.508  0.00  0.00    -0.013 A 
ATOM     22  C   UNL     1      48.311  19.500  19.566  0.00  0.00    +0.219 C 
ATOM     23  O   UNL     1      47.298  20.495  19.627  0.00  0.00    -0.275 OA
ATOM     24  C   UNL     1      46.127  19.832  19.844  0.00  0.00    +0.115 A 
ENDROOT
BRANCH   7   8
ATOM      8  O   UNL     1      42.755  19.820  21.165  0.00  0.00    -0.492 OA
ATOM      9  H   UNL     1      42.889  20.344  21.967  0.00  0.00    +0.393 HD
ENDBRANCH   7   8
BRANCH   6   5
ATOM      5  C   UNL     1      44.854  21.717  20.940  0.00  0.00    +0.129 C 
BRANCH   5   4
ATOM      1  C   UNL     1      45.766  24.385  20.892  0.00  0.00    +0.076 C 
ATOM      2  C   UNL     1      44.863  23.874  19.798  0.00  0.00    -0.128 C 
ATOM      3  C   UNL     1      44.394  24.808  18.712  0.00  0.00    +0.073 C 
ATOM      4  C   UNL     1      44.489  22.619  19.790  0.00  0.00    -0.055 C 
ENDBRANCH   5   4
ENDBRANCH   6   5
TORSDOF 3
ENDMDL
MODEL 2
REMARK VINA RESULT:      -6.3      1.676      5.979
REMARK  Name = ZINC95486080
REMARK  5 active torsions:
REMARK  status: ('A' for Active; 'I' for Inactive)
REMARK    1  A    between atoms: C1_1  and  C2_2
REMARK    2  A    between atoms: C2_2  and  C20_25
REMARK    3  A    between atoms: C3_3  and  C4_4
REMARK    4  A    between atoms: C4_4  and  C5_5
REMARK    5  A    between atoms: C6_6  and  O3_24
REMARK                            x       y       z     vdW  Elec       q    Type
REMARK                         _______ _______ _______ _____ _____    ______ ____
ROOT
ATOM      6  C   UNL     1      49.373  17.797  18.072  0.00  0.00    -0.109 A 
ATOM      7  C   UNL     1      49.120  16.597  17.412  0.00  0.00    +0.145 A 
ATOM     10  C   UNL     1      47.832  16.128  17.225  0.00  0.00    -0.032 A 
ATOM     11  C   UNL     1      46.730  16.830  17.696  0.00  0.00    +0.090 A 
ATOM     12  C   UNL     1      46.969  18.017  18.354  0.00  0.00    -0.161 A 
ATOM     13  C   UNL     1      46.079  19.012  18.997  0.00  0.00    -0.017 C 
ATOM     14  C   UNL     1      44.764  19.374  18.352  0.00  0.00    +0.276 C 
ATOM     15  O   UNL     1      44.280  20.597  18.918  0.00  0.00    -0.323 OA
ATOM     16  C   UNL     1      44.975  21.290  19.850  0.00  0.00    +0.140 A 
ATOM     17  C   UNL     1      46.382  21.211  19.924  0.00  0.00    -0.159 A 
ATOM     18  C   UNL     1      47.100  21.935  20.837  0.00  0.00    +0.072 A 
ATOM     19  C   UNL     1      46.439  22.757  21.736  0.00  0.00    -0.018 A 
ATOM     20  C   UNL     1      45.060  22.839  21.706  0.00  0.00    +0.053 A 
ATOM     21  C   UNL     1      44.319  22.103  20.762  0.00  0.00    -0.013 A 
ATOM     22  C   UNL     1      46.986  20.284  18.922  0.00  0.00    +0.219 C 
ATOM     23  O   UNL     1      48.259  19.711  19.190  0.00  0.00    -0.275 OA
ATOM     24  C   UNL     1      48.279  18.510  18.545  0.00  0.00    +0.115 A 
ENDROOT
BRANCH   7   8
ATOM      8  O   UNL     1      50.166  15.870  16.938  0.00  0.00    -0.492 OA
ATOM      9  H   UNL     1      51.004  16.354  16.916  0.00  0.00    +0.393 HD
ENDBRANCH   7   8
BRANCH   6   5
ATOM      5  C   UNL     1      50.780  18.298  18.272  0.00  0.00    +0.129 C 
BRANCH   5   4
ATOM      1  C   UNL     1      51.284  21.049  18.634  0.00  0.00    +0.076 C 
ATOM      2  C   UNL     1      51.359  20.441  17.256  0.00  0.00    -0.128 C 
ATOM      3  C   UNL     1      51.637  21.316  16.061  0.00  0.00    +0.073 C 
ATOM      4  C   UNL     1      51.182  19.152  17.099  0.00  0.00    -0.055 C 
ENDBRANCH   5   4
ENDBRANCH   6   5
TORSDOF 3
ENDMDL
MODEL 3
REMARK VINA RESULT:      -6.2      2.902      3.800
REMARK  Name = ZINC95486080
REMARK  5 active torsions:
REMARK  status: ('A' for Active; 'I' for Inactive)
REMARK    1  A    between atoms: C1_1  and  C2_2
REMARK    2  A    between atoms: C2_2  and  C20_25
REMARK    3  A    between atoms: C3_3  and  C4_4
REMARK    4  A    between atoms: C4_4  and  C5_5
REMARK    5  A    between atoms: C6_6  and  O3_24
REMARK                            x       y       z     vdW  Elec       q    Type
REMARK                         _______ _______ _______ _____ _____    ______ ____
ROOT
ATOM      6  C   UNL     1      46.398  16.590  19.573  0.00  0.00    -0.109 A 
ATOM      7  C   UNL     1      45.853  15.357  19.227  0.00  0.00    +0.145 A 
ATOM     10  C   UNL     1      46.394  14.581  18.216  0.00  0.00    -0.032 A 
ATOM     11  C   UNL     1      47.504  15.002  17.496  0.00  0.00    +0.090 A 
ATOM     12  C   UNL     1      48.049  16.223  17.828  0.00  0.00    -0.161 A 
ATOM     13  C   UNL     1      49.193  16.999  17.291  0.00  0.00    -0.017 C 
ATOM     14  C   UNL     1      50.461  16.288  16.888  0.00  0.00    +0.276 C 
ATOM     15  O   UNL     1      51.523  17.241  16.780  0.00  0.00    -0.323 OA
ATOM     16  C   UNL     1      51.351  18.555  17.061  0.00  0.00    +0.140 A 
ATOM     17  C   UNL     1      50.363  18.986  17.971  0.00  0.00    -0.159 A 
ATOM     18  C   UNL     1      50.202  20.307  18.291  0.00  0.00    +0.072 A 
ATOM     19  C   UNL     1      51.011  21.263  17.695  0.00  0.00    -0.018 A 
ATOM     20  C   UNL     1      51.972  20.876  16.781  0.00  0.00    +0.053 A 
ATOM     21  C   UNL     1      52.147  19.517  16.457  0.00  0.00    -0.013 A 
ATOM     22  C   UNL     1      49.540  17.877  18.537  0.00  0.00    +0.219 C 
ATOM     23  O   UNL     1      48.237  18.163  19.026  0.00  0.00    -0.275 OA
ATOM     24  C   UNL     1      47.511  17.021  18.862  0.00  0.00    +0.115 A 
ENDROOT
BRANCH   7   8
ATOM      8  O   UNL     1      44.762  14.904  19.899  0.00  0.00    -0.492 OA
ATOM      9  H   UNL     1      44.464  15.492  20.607  0.00  0.00    +0.393 HD
ENDBRANCH   7   8
BRANCH   6   5
ATOM      5  C   UNL     1      45.799  17.429  20.673  0.00  0.00    +0.129 C 
BRANCH   5   4
ATOM      1  C   UNL     1      43.258  17.616  21.881  0.00  0.00    +0.076 C 
ATOM      2  C   UNL     1      43.555  18.388  20.620  0.00  0.00    -0.128 C 
ATOM      3  C   UNL     1      42.473  19.209  19.967  0.00  0.00    +0.073 C 
ATOM      4  C   UNL     1      44.754  18.346  20.094  0.00  0.00    -0.055 C 
ENDBRANCH   5   4
ENDBRANCH   6   5
TORSDOF 3
ENDMDL
MODEL 4
REMARK VINA RESULT:      -6.1      1.457      2.038
REMARK  Name = ZINC95486080
REMARK  5 active torsions:
REMARK  status: ('A' for Active; 'I' for Inactive)
REMARK    1  A    between atoms: C1_1  and  C2_2
REMARK    2  A    between atoms: C2_2  and  C20_25
REMARK    3  A    between atoms: C3_3  and  C4_4
REMARK    4  A    between atoms: C4_4  and  C5_5
REMARK    5  A    between atoms: C6_6  and  O3_24
REMARK                            x       y       z     vdW  Elec       q    Type
REMARK                         _______ _______ _______ _____ _____    ______ ____
ROOT
ATOM      6  C   UNL     1      46.143  18.305  20.457  0.00  0.00    -0.109 A 
ATOM      7  C   UNL     1      45.236  17.250  20.413  0.00  0.00    +0.145 A 
ATOM     10  C   UNL     1      45.360  16.223  19.493  0.00  0.00    -0.032 A 
ATOM     11  C   UNL     1      46.394  16.202  18.567  0.00  0.00    +0.090 A 
ATOM     12  C   UNL     1      47.295  17.242  18.600  0.00  0.00    -0.161 A 
ATOM     13  C   UNL     1      48.489  17.572  17.783  0.00  0.00    -0.017 C 
ATOM     14  C   UNL     1      49.427  16.474  17.347  0.00  0.00    +0.276 C 
ATOM     15  O   UNL     1      50.669  17.052  16.929  0.00  0.00    -0.323 OA
ATOM     16  C   UNL     1      50.906  18.384  16.991  0.00  0.00    +0.140 A 
ATOM     17  C   UNL     1      50.250  19.202  17.935  0.00  0.00    -0.159 A 
ATOM     18  C   UNL     1      50.508  20.543  18.033  0.00  0.00    +0.072 A 
ATOM     19  C   UNL     1      51.421  21.132  17.173  0.00  0.00    -0.018 A 
ATOM     20  C   UNL     1      52.064  20.364  16.221  0.00  0.00    +0.053 A 
ATOM     21  C   UNL     1      51.808  18.983  16.124  0.00  0.00    -0.013 A 
ATOM     22  C   UNL     1      49.276  18.467  18.795  0.00  0.00    +0.219 C 
ATOM     23  O   UNL     1      48.206  19.184  19.396  0.00  0.00    -0.275 OA
ATOM     24  C   UNL     1      47.184  18.293  19.537  0.00  0.00    +0.115 A 
ENDROOT
BRANCH   7   8
ATOM      8  O   UNL     1      44.203  17.229  21.296  0.00  0.00    -0.492 OA
ATOM      9  H   UNL     1      44.181  16.442  21.857  0.00  0.00    +0.393 HD
ENDBRANCH   7   8
BRANCH   6   5
ATOM      5  C   UNL     1      45.998  19.420  21.460  0.00  0.00    +0.129 C 
BRANCH   5   4
ATOM      1  C   UNL     1      47.242  21.948  21.321  0.00  0.00    +0.076 C 
ATOM      2  C   UNL     1      45.835  21.768  20.810  0.00  0.00    -0.128 C 
ATOM      3  C   UNL     1      45.067  22.953  20.285  0.00  0.00    +0.073 C 
ATOM      4  C   UNL     1      45.281  20.581  20.822  0.00  0.00    -0.055 C 
ENDBRANCH   5   4
ENDBRANCH   6   5
TORSDOF 3
ENDMDL
MODEL 5
REMARK VINA RESULT:      -6.0      2.427      7.195
REMARK  Name = ZINC95486080
REMARK  5 active torsions:
REMARK  status: ('A' for Active; 'I' for Inactive)
REMARK    1  A    between atoms: C1_1  and  C2_2
REMARK    2  A    between atoms: C2_2  and  C20_25
REMARK    3  A    between atoms: C3_3  and  C4_4
REMARK    4  A    between atoms: C4_4  and  C5_5
REMARK    5  A    between atoms: C6_6  and  O3_24
REMARK                            x       y       z     vdW  Elec       q    Type
REMARK                         _______ _______ _______ _____ _____    ______ ____
ROOT
ATOM      6  C   UNL     1      47.090  17.983  19.174  0.00  0.00    -0.109 A 
ATOM      7  C   UNL     1      48.421  18.389  19.190  0.00  0.00    +0.145 A 
ATOM     10  C   UNL     1      48.775  19.726  19.132  0.00  0.00    -0.032 A 
ATOM     11  C   UNL     1      47.814  20.725  19.047  0.00  0.00    +0.090 A 
ATOM     12  C   UNL     1      46.494  20.335  19.026  0.00  0.00    -0.161 A 
ATOM     13  C   UNL     1      45.219  21.086  18.926  0.00  0.00    -0.017 C 
ATOM     14  C   UNL     1      45.056  22.391  19.665  0.00  0.00    +0.276 C 
ATOM     15  O   UNL     1      43.665  22.721  19.741  0.00  0.00    -0.323 OA
ATOM     16  C   UNL     1      42.699  21.910  19.247  0.00  0.00    +0.140 A 
ATOM     17  C   UNL     1      42.893  20.516  19.146  0.00  0.00    -0.159 A 
ATOM     18  C   UNL     1      41.912  19.682  18.682  0.00  0.00    +0.072 A 
ATOM     19  C   UNL     1      40.696  20.208  18.276  0.00  0.00    -0.018 A 
ATOM     20  C   UNL     1      40.482  21.572  18.340  0.00  0.00    +0.053 A 
ATOM     21  C   UNL     1      41.485  22.432  18.825  0.00  0.00    -0.013 A 
ATOM     22  C   UNL     1      44.242  20.062  19.593  0.00  0.00    +0.219 C 
ATOM     23  O   UNL     1      44.763  18.840  19.088  0.00  0.00    -0.275 OA
ATOM     24  C   UNL     1      46.120  18.974  19.092  0.00  0.00    +0.115 A 
ENDROOT
BRANCH   7   8
ATOM      8  O   UNL     1      49.398  17.448  19.267  0.00  0.00    -0.492 OA
ATOM      9  H   UNL     1      50.037  17.600  19.977  0.00  0.00    +0.393 HD
ENDBRANCH   7   8
BRANCH   6   5
ATOM      5  C   UNL     1      46.715  16.525  19.235  0.00  0.00    +0.129 C 
BRANCH   5   4
ATOM      1  C   UNL     1      45.262  14.154  19.705  0.00  0.00    +0.076 C 
ATOM      2  C   UNL     1      45.543  15.107  20.840  0.00  0.00    -0.128 C 
ATOM      3  C   UNL     1      44.991  14.826  22.213  0.00  0.00    +0.073 C 
ATOM      4  C   UNL     1      46.269  16.178  20.631  0.00  0.00    -0.055 C 
ENDBRANCH   5   4
ENDBRANCH   6   5
TORSDOF 3
ENDMDL
MODEL 6
REMARK VINA RESULT:      -5.8      2.523      7.264
REMARK  Name = ZINC95486080
REMARK  5 active torsions:
REMARK  status: ('A' for Active; 'I' for Inactive)
REMARK    1  A    between atoms: C1_1  and  C2_2
REMARK    2  A    between atoms: C2_2  and  C20_25
REMARK    3  A    between atoms: C3_3  and  C4_4
REMARK    4  A    between atoms: C4_4  and  C5_5
REMARK    5  A    between atoms: C6_6  and  O3_24
REMARK                            x       y       z     vdW  Elec       q    Type
REMARK                         _______ _______ _______ _____ _____    ______ ____
ROOT
ATOM      6  C   UNL     1      47.198  17.346  17.922  0.00  0.00    -0.109 A 
ATOM      7  C   UNL     1      48.579  17.498  18.011  0.00  0.00    +0.145 A 
ATOM     10  C   UNL     1      49.156  18.693  18.404  0.00  0.00    -0.032 A 
ATOM     11  C   UNL     1      48.380  19.801  18.722  0.00  0.00    +0.090 A 
ATOM     12  C   UNL     1      47.012  19.662  18.634  0.00  0.00    -0.161 A 
ATOM     13  C   UNL     1      45.885  20.597  18.868  0.00  0.00    -0.017 C 
ATOM     14  C   UNL     1      45.940  21.567  20.022  0.00  0.00    +0.276 C 
ATOM     15  O   UNL     1      44.624  22.070  20.279  0.00  0.00    -0.323 OA
ATOM     16  C   UNL     1      43.540  21.654  19.584  0.00  0.00    +0.140 A 
ATOM     17  C   UNL     1      43.495  20.373  18.994  0.00  0.00    -0.159 A 
ATOM     18  C   UNL     1      42.390  19.926  18.320  0.00  0.00    +0.072 A 
ATOM     19  C   UNL     1      41.285  20.752  18.185  0.00  0.00    -0.018 A 
ATOM     20  C   UNL     1      41.306  22.022  18.730  0.00  0.00    +0.053 A 
ATOM     21  C   UNL     1      42.436  22.481  19.433  0.00  0.00    -0.013 A 
ATOM     22  C   UNL     1      44.743  19.578  19.185  0.00  0.00    +0.219 C 
ATOM     23  O   UNL     1      45.052  18.544  18.260  0.00  0.00    -0.275 OA
ATOM     24  C   UNL     1      46.412  18.446  18.241  0.00  0.00    +0.115 A 
ENDROOT
BRANCH   7   8
ATOM      8  O   UNL     1      49.381  16.444  17.705  0.00  0.00    -0.492 OA
ATOM      9  H   UNL     1      49.036  15.878  17.001  0.00  0.00    +0.393 HD
ENDBRANCH   7   8
BRANCH   6   5
ATOM      5  C   UNL     1      46.581  16.041  17.491  0.00  0.00    +0.129 C 
BRANCH   5   4
ATOM      1  C   UNL     1      46.277  13.237  17.478  0.00  0.00    +0.076 C 
ATOM      2  C   UNL     1      45.802  14.044  18.660  0.00  0.00    -0.128 C 
ATOM      3  C   UNL     1      45.105  13.360  19.807  0.00  0.00    +0.073 C 
ATOM      4  C   UNL     1      45.998  15.339  18.689  0.00  0.00    -0.055 C 
ENDBRANCH   5   4
ENDBRANCH   6   5
TORSDOF 3
ENDMDL
MODEL 7
REMARK VINA RESULT:      -5.7     19.966     21.585
REMARK  Name = ZINC95486080
REMARK  5 active torsions:
REMARK  status: ('A' for Active; 'I' for Inactive)
REMARK    1  A    between atoms: C1_1  and  C2_2
REMARK    2  A    between atoms: C2_2  and  C20_25
REMARK    3  A    between atoms: C3_3  and  C4_4
REMARK    4  A    between atoms: C4_4  and  C5_5
REMARK    5  A    between atoms: C6_6  and  O3_24
REMARK                            x       y       z     vdW  Elec       q    Type
REMARK                         _______ _______ _______ _____ _____    ______ ____
ROOT
ATOM      6  C   UNL     1      51.827  33.014   3.998  0.00  0.00    -0.109 A 
ATOM      7  C   UNL     1      51.113  33.617   5.030  0.00  0.00    +0.145 A 
ATOM     10  C   UNL     1      51.719  33.977   6.221  0.00  0.00    -0.032 A 
ATOM     11  C   UNL     1      53.071  33.747   6.443  0.00  0.00    +0.090 A 
ATOM     12  C   UNL     1      53.786  33.148   5.430  0.00  0.00    -0.161 A 
ATOM     13  C   UNL     1      55.205  32.734   5.304  0.00  0.00    -0.017 C 
ATOM     14  C   UNL     1      56.297  33.611   5.862  0.00  0.00    +0.276 C 
ATOM     15  O   UNL     1      57.552  33.224   5.293  0.00  0.00    -0.323 OA
ATOM     16  C   UNL     1      57.656  32.244   4.365  0.00  0.00    +0.140 A 
ATOM     17  C   UNL     1      56.583  31.935   3.503  0.00  0.00    -0.159 A 
ATOM     18  C   UNL     1      56.687  30.972   2.536  0.00  0.00    +0.072 A 
ATOM     19  C   UNL     1      57.867  30.256   2.401  0.00  0.00    -0.018 A 
ATOM     20  C   UNL     1      58.929  30.518   3.245  0.00  0.00    +0.053 A 
ATOM     21  C   UNL     1      58.829  31.515   4.235  0.00  0.00    -0.013 A 
ATOM     22  C   UNL     1      55.359  32.752   3.747  0.00  0.00    +0.219 C 
ATOM     23  O   UNL     1      54.094  32.238   3.354  0.00  0.00    -0.275 OA
ATOM     24  C   UNL     1      53.181  32.781   4.208  0.00  0.00    +0.115 A 
ENDROOT
BRANCH   7   8
ATOM      8  O   UNL     1      49.786  33.857   4.862  0.00  0.00    -0.492 OA
ATOM      9  H   UNL     1      49.503  34.732   5.164  0.00  0.00    +0.393 HD
ENDBRANCH   7   8
BRANCH   6   5
ATOM      5  C   UNL     1      51.157  32.623   2.707  0.00  0.00    +0.129 C 
BRANCH   5   4
ATOM      1  C   UNL     1      52.453  32.045   0.269  0.00  0.00    +0.076 C 
ATOM      2  C   UNL     1      52.015  33.454   0.578  0.00  0.00    -0.128 C 
ATOM      3  C   UNL     1      52.329  34.568  -0.387  0.00  0.00    +0.073 C 
ATOM      4  C   UNL     1      51.361  33.710   1.684  0.00  0.00    -0.055 C 
ENDBRANCH   5   4
ENDBRANCH   6   5
TORSDOF 3
ENDMDL
MODEL 8
REMARK VINA RESULT:      -5.7      3.755      6.300
REMARK  Name = ZINC95486080
REMARK  5 active torsions:
REMARK  status: ('A' for Active; 'I' for Inactive)
REMARK    1  A    between atoms: C1_1  and  C2_2
REMARK    2  A    between atoms: C2_2  and  C20_25
REMARK    3  A    between atoms: C3_3  and  C4_4
REMARK    4  A    between atoms: C4_4  and  C5_5
REMARK    5  A    between atoms: C6_6  and  O3_24
REMARK                            x       y       z     vdW  Elec       q    Type
REMARK                         _______ _______ _______ _____ _____    ______ ____
ROOT
ATOM      6  C   UNL     1      48.871  17.974  18.245  0.00  0.00    -0.109 A 
ATOM      7  C   UNL     1      47.751  18.719  18.602  0.00  0.00    +0.145 A 
ATOM     10  C   UNL     1      46.468  18.280  18.327  0.00  0.00    -0.032 A 
ATOM     11  C   UNL     1      46.239  17.077  17.672  0.00  0.00    +0.090 A 
ATOM     12  C   UNL     1      47.341  16.333  17.311  0.00  0.00    -0.161 A 
ATOM     13  C   UNL     1      47.499  15.041  16.601  0.00  0.00    -0.017 C 
ATOM     14  C   UNL     1      46.545  13.907  16.883  0.00  0.00    +0.276 C 
ATOM     15  O   UNL     1      47.110  12.683  16.402  0.00  0.00    -0.323 OA
ATOM     16  C   UNL     1      48.339  12.624  15.837  0.00  0.00    +0.140 A 
ATOM     17  C   UNL     1      49.343  13.560  16.166  0.00  0.00    -0.159 A 
ATOM     18  C   UNL     1      50.600  13.490  15.631  0.00  0.00    +0.072 A 
ATOM     19  C   UNL     1      50.906  12.490  14.720  0.00  0.00    -0.018 A 
ATOM     20  C   UNL     1      49.939  11.572  14.358  0.00  0.00    +0.053 A 
ATOM     21  C   UNL     1      48.647  11.635  14.914  0.00  0.00    -0.013 A 
ATOM     22  C   UNL     1      48.899  14.600  17.140  0.00  0.00    +0.219 C 
ATOM     23  O   UNL     1      49.573  15.852  17.169  0.00  0.00    -0.275 OA
ATOM     24  C   UNL     1      48.655  16.767  17.592  0.00  0.00    +0.115 A 
ENDROOT
BRANCH   7   8
ATOM      8  O   UNL     1      47.923  19.907  19.240  0.00  0.00    -0.492 OA
ATOM      9  H   UNL     1      48.220  20.624  18.663  0.00  0.00    +0.393 HD
ENDBRANCH   7   8
BRANCH   6   5
ATOM      5  C   UNL     1      50.265  18.462  18.547  0.00  0.00    +0.129 C 
BRANCH   5   4
ATOM      1  C   UNL     1      51.200  21.114  18.763  0.00  0.00    +0.076 C 
ATOM      2  C   UNL     1      51.204  20.417  17.426  0.00  0.00    -0.128 C 
ATOM      3  C   UNL     1      51.646  21.159  16.191  0.00  0.00    +0.073 C 
ATOM      4  C   UNL     1      50.824  19.166  17.338  0.00  0.00    -0.055 C 
ENDBRANCH   5   4
ENDBRANCH   6   5
TORSDOF 3
ENDMDL
MODEL 9
REMARK VINA RESULT:      -5.6      3.452      6.417
REMARK  Name = ZINC95486080
REMARK  5 active torsions:
REMARK  status: ('A' for Active; 'I' for Inactive)
REMARK    1  A    between atoms: C1_1  and  C2_2
REMARK    2  A    between atoms: C2_2  and  C20_25
REMARK    3  A    between atoms: C3_3  and  C4_4
REMARK    4  A    between atoms: C4_4  and  C5_5
REMARK    5  A    between atoms: C6_6  and  O3_24
REMARK                            x       y       z     vdW  Elec       q    Type
REMARK                         _______ _______ _______ _____ _____    ______ ____
ROOT
ATOM      6  C   UNL     1      50.441  19.953  18.307  0.00  0.00    -0.109 A 
ATOM      7  C   UNL     1      51.390  19.870  17.292  0.00  0.00    +0.145 A 
ATOM     10  C   UNL     1      51.443  18.785  16.433  0.00  0.00    -0.032 A 
ATOM     11  C   UNL     1      50.554  17.725  16.550  0.00  0.00    +0.090 A 
ATOM     12  C   UNL     1      49.613  17.796  17.554  0.00  0.00    -0.161 A 
ATOM     13  C   UNL     1      48.535  16.877  17.995  0.00  0.00    -0.017 C 
ATOM     14  C   UNL     1      47.717  16.132  16.970  0.00  0.00    +0.276 C 
ATOM     15  O   UNL     1      46.524  15.636  17.588  0.00  0.00    -0.323 OA
ATOM     16  C   UNL     1      46.223  15.881  18.885  0.00  0.00    +0.140 A 
ATOM     17  C   UNL     1      46.702  17.034  19.543  0.00  0.00    -0.159 A 
ATOM     18  C   UNL     1      46.376  17.312  20.843  0.00  0.00    +0.072 A 
ATOM     19  C   UNL     1      45.570  16.436  21.553  0.00  0.00    -0.018 A 
ATOM     20  C   UNL     1      45.103  15.286  20.945  0.00  0.00    +0.053 A 
ATOM     21  C   UNL     1      45.429  15.001  19.606  0.00  0.00    -0.013 A 
ATOM     22  C   UNL     1      47.574  17.895  18.692  0.00  0.00    +0.219 C 
ATOM     23  O   UNL     1      48.515  18.757  19.316  0.00  0.00    -0.275 OA
ATOM     24  C   UNL     1      49.544  18.900  18.432  0.00  0.00    +0.115 A 
ENDROOT
BRANCH   7   8
ATOM      8  O   UNL     1      52.286  20.880  17.140  0.00  0.00    -0.492 OA
ATOM      9  H   UNL     1      52.258  21.541  17.846  0.00  0.00    +0.393 HD
ENDBRANCH   7   8
BRANCH   6   5
ATOM      5  C   UNL     1      50.393  21.136  19.239  0.00  0.00    +0.129 C 
BRANCH   5   4
ATOM      1  C   UNL     1      52.856  22.116  20.204  0.00  0.00    +0.076 C 
ATOM      2  C   UNL     1      52.059  21.133  21.024  0.00  0.00    -0.128 C 
ATOM      3  C   UNL     1      52.609  20.622  22.330  0.00  0.00    +0.073 C 
ATOM      4  C   UNL     1      50.888  20.724  20.601  0.00  0.00    -0.055 C 
ENDBRANCH   5   4
ENDBRANCH   6   5
TORSDOF 3
ENDMDL
