MODEL 1
REMARK VINA RESULT:      -6.2      0.000      0.000
REMARK  Name = ZINC95486048
REMARK  10 active torsions:
REMARK  status: ('A' for Active; 'I' for Inactive)
REMARK    1  A    between atoms: C1_1  and  C2_2
REMARK    2  A    between atoms: C2_2  and  C3_3
REMARK    3  A    between atoms: C2_2  and  C4_4
REMARK    4  A    between atoms: C4_4  and  C5_5
REMARK    5  A    between atoms: C5_5  and  C6_6
REMARK    6  A    between atoms: C8_8  and  C13_15
REMARK    7  A    between atoms: C10_10  and  O2_13
REMARK    8  A    between atoms: C11_11  and  O1_12
REMARK    9  A    between atoms: O2_13  and  C12_14
REMARK   10  A    between atoms: C19_23  and  O5_27
REMARK                            x       y       z     vdW  Elec       q    Type
REMARK                         _______ _______ _______ _____ _____    ______ ____
ROOT
ATOM      5  C   UNL     1      49.153  19.112  19.199  0.00  0.00    -0.064 A 
ATOM      6  C   UNL     1      48.007  19.837  19.468  0.00  0.00    +0.011 A 
ATOM      7  C   UNL     1      46.765  19.243  19.345  0.00  0.00    -0.057 A 
ATOM     21  C   UNL     1      46.663  17.921  18.952  0.00  0.00    -0.034 A 
ATOM     22  C   UNL     1      47.808  17.190  18.680  0.00  0.00    +0.107 A 
ATOM     25  C   UNL     1      49.059  17.790  18.798  0.00  0.00    +0.087 A 
ENDROOT
BRANCH   7   8
ATOM      8  C   UNL     1      45.518  20.037  19.640  0.00  0.00    +0.240 C 
ATOM      9  C   UNL     1      45.816  21.535  19.488  0.00  0.00    +0.040 C 
ATOM     10  C   UNL     1      44.523  22.280  19.764  0.00  0.00    +0.402 C 
ATOM     11  C   UNL     1      43.292  21.684  19.221  0.00  0.00    -0.263 A 
ATOM     12  C   UNL     1      42.098  22.410  19.201  0.00  0.00    +0.135 A 
ATOM     13  C   UNL     1      40.964  21.835  18.699  0.00  0.00    -0.048 A 
ATOM     14  C   UNL     1      40.996  20.532  18.209  0.00  0.00    +0.181 A 
ATOM     17  C   UNL     1      42.175  19.802  18.220  0.00  0.00    -0.045 A 
ATOM     18  C   UNL     1      43.334  20.370  18.724  0.00  0.00    +0.199 A 
ATOM     19  O   UNL     1      44.505  23.315  20.399  0.00  0.00    -0.439 OA
ATOM     20  O   UNL     1      44.488  19.663  18.725  0.00  0.00    -0.301 OA
BRANCH  14  15
ATOM     15  O   UNL     1      39.862  19.972  17.716  0.00  0.00    -0.493 OA
ATOM     16  H   UNL     1      39.057  20.465  17.926  0.00  0.00    +0.402 HD
ENDBRANCH  14  15
ENDBRANCH   7   8
BRANCH  22  23
ATOM     23  O   UNL     1      47.711  15.889  18.293  0.00  0.00    -0.305 OA
ATOM     24  C   UNL     1      46.664  15.562  17.377  0.00  0.00    +0.241 C 
ENDBRANCH  22  23
BRANCH  25  26
ATOM     26  O   UNL     1      50.185  17.077  18.527  0.00  0.00    -0.480 OA
ATOM     27  H   UNL     1      51.006  17.557  18.704  0.00  0.00    +0.386 HD
ENDBRANCH  25  26
BRANCH   5   4
ATOM      4  C   UNL     1      50.506  19.763  19.335  0.00  0.00    +0.082 C 
BRANCH   4   3
ATOM      3  C   UNL     1      50.562  21.010  18.451  0.00  0.00    +0.018 C 
BRANCH   3   2
ATOM      1  C   UNL     1      52.443  19.574  17.648  0.00  0.00    +0.014 C 
ATOM      2  C   UNL     1      51.836  20.978  17.603  0.00  0.00    -0.026 C 
ATOM     28  C   UNL     1      51.495  21.340  16.156  0.00  0.00    +0.014 C 
ENDBRANCH   3   2
ENDBRANCH   4   3
ENDBRANCH   5   4
TORSDOF 7
ENDMDL
MODEL 2
REMARK VINA RESULT:      -6.2      1.339      1.744
REMARK  Name = ZINC95486048
REMARK  10 active torsions:
REMARK  status: ('A' for Active; 'I' for Inactive)
REMARK    1  A    between atoms: C1_1  and  C2_2
REMARK    2  A    between atoms: C2_2  and  C3_3
REMARK    3  A    between atoms: C2_2  and  C4_4
REMARK    4  A    between atoms: C4_4  and  C5_5
REMARK    5  A    between atoms: C5_5  and  C6_6
REMARK    6  A    between atoms: C8_8  and  C13_15
REMARK    7  A    between atoms: C10_10  and  O2_13
REMARK    8  A    between atoms: C11_11  and  O1_12
REMARK    9  A    between atoms: O2_13  and  C12_14
REMARK   10  A    between atoms: C19_23  and  O5_27
REMARK                            x       y       z     vdW  Elec       q    Type
REMARK                         _______ _______ _______ _____ _____    ______ ____
ROOT
ATOM      5  C   UNL     1      49.005  17.305  17.627  0.00  0.00    -0.064 A 
ATOM      6  C   UNL     1      48.201  18.262  18.219  0.00  0.00    +0.011 A 
ATOM      7  C   UNL     1      46.862  18.003  18.439  0.00  0.00    -0.057 A 
ATOM     21  C   UNL     1      46.319  16.787  18.069  0.00  0.00    -0.034 A 
ATOM     22  C   UNL     1      47.119  15.824  17.475  0.00  0.00    +0.107 A 
ATOM     25  C   UNL     1      48.468  16.087  17.248  0.00  0.00    +0.087 A 
ENDROOT
BRANCH   7   8
ATOM      8  C   UNL     1      45.989  19.049  19.085  0.00  0.00    +0.240 C 
ATOM      9  C   UNL     1      46.708  20.405  19.058  0.00  0.00    +0.040 C 
ATOM     10  C   UNL     1      45.774  21.421  19.689  0.00  0.00    +0.402 C 
ATOM     11  C   UNL     1      44.348  21.304  19.349  0.00  0.00    -0.263 A 
ATOM     12  C   UNL     1      43.452  22.327  19.670  0.00  0.00    +0.135 A 
ATOM     13  C   UNL     1      42.129  22.194  19.351  0.00  0.00    -0.048 A 
ATOM     14  C   UNL     1      41.674  21.045  18.709  0.00  0.00    +0.181 A 
ATOM     17  C   UNL     1      42.553  20.023  18.383  0.00  0.00    -0.045 A 
ATOM     18  C   UNL     1      43.898  20.143  18.697  0.00  0.00    +0.199 A 
ATOM     19  O   UNL     1      46.183  22.288  20.435  0.00  0.00    -0.439 OA
ATOM     20  O   UNL     1      44.758  19.152  18.369  0.00  0.00    -0.301 OA
BRANCH  14  15
ATOM     15  O   UNL     1      40.357  20.925  18.402  0.00  0.00    -0.493 OA
ATOM     16  H   UNL     1      40.180  20.328  17.662  0.00  0.00    +0.402 HD
ENDBRANCH  14  15
ENDBRANCH   7   8
BRANCH  22  23
ATOM     23  O   UNL     1      46.588  14.626  17.109  0.00  0.00    -0.305 OA
ATOM     24  C   UNL     1      46.019  13.825  18.147  0.00  0.00    +0.241 C 
ENDBRANCH  22  23
BRANCH  25  26
ATOM     26  O   UNL     1      49.255  15.147  16.660  0.00  0.00    -0.480 OA
ATOM     27  H   UNL     1      48.930  14.842  15.802  0.00  0.00    +0.386 HD
ENDBRANCH  25  26
BRANCH   5   4
ATOM      4  C   UNL     1      50.466  17.591  17.389  0.00  0.00    +0.082 C 
BRANCH   4   3
ATOM      3  C   UNL     1      50.835  18.928  18.033  0.00  0.00    +0.018 C 
BRANCH   3   2
ATOM      1  C   UNL     1      51.856  19.012  15.753  0.00  0.00    +0.014 C 
ATOM      2  C   UNL     1      51.828  19.670  17.135  0.00  0.00    -0.026 C 
ATOM     28  C   UNL     1      51.397  21.131  16.996  0.00  0.00    +0.014 C 
ENDBRANCH   3   2
ENDBRANCH   4   3
ENDBRANCH   5   4
TORSDOF 7
ENDMDL
MODEL 3
REMARK VINA RESULT:      -6.2      1.819      2.388
REMARK  Name = ZINC95486048
REMARK  10 active torsions:
REMARK  status: ('A' for Active; 'I' for Inactive)
REMARK    1  A    between atoms: C1_1  and  C2_2
REMARK    2  A    between atoms: C2_2  and  C3_3
REMARK    3  A    between atoms: C2_2  and  C4_4
REMARK    4  A    between atoms: C4_4  and  C5_5
REMARK    5  A    between atoms: C5_5  and  C6_6
REMARK    6  A    between atoms: C8_8  and  C13_15
REMARK    7  A    between atoms: C10_10  and  O2_13
REMARK    8  A    between atoms: C11_11  and  O1_12
REMARK    9  A    between atoms: O2_13  and  C12_14
REMARK   10  A    between atoms: C19_23  and  O5_27
REMARK                            x       y       z     vdW  Elec       q    Type
REMARK                         _______ _______ _______ _____ _____    ______ ____
ROOT
ATOM      5  C   UNL     1      48.646  18.705  19.046  0.00  0.00    -0.064 A 
ATOM      6  C   UNL     1      47.317  18.756  19.426  0.00  0.00    +0.011 A 
ATOM      7  C   UNL     1      46.425  17.809  18.962  0.00  0.00    -0.057 A 
ATOM     21  C   UNL     1      46.856  16.804  18.116  0.00  0.00    -0.034 A 
ATOM     22  C   UNL     1      48.186  16.746  17.731  0.00  0.00    +0.107 A 
ATOM     25  C   UNL     1      49.084  17.705  18.193  0.00  0.00    +0.087 A 
ENDROOT
BRANCH   7   8
ATOM      8  C   UNL     1      44.977  17.870  19.380  0.00  0.00    +0.240 C 
ATOM      9  C   UNL     1      44.880  17.771  20.909  0.00  0.00    +0.040 C 
ATOM     10  C   UNL     1      43.410  17.869  21.273  0.00  0.00    +0.402 C 
ATOM     11  C   UNL     1      42.609  18.843  20.515  0.00  0.00    -0.263 A 
ATOM     12  C   UNL     1      41.322  19.188  20.936  0.00  0.00    +0.135 A 
ATOM     13  C   UNL     1      40.592  20.090  20.213  0.00  0.00    -0.048 A 
ATOM     14  C   UNL     1      41.126  20.664  19.063  0.00  0.00    +0.181 A 
ATOM     17  C   UNL     1      42.403  20.332  18.635  0.00  0.00    -0.045 A 
ATOM     18  C   UNL     1      43.158  19.421  19.357  0.00  0.00    +0.199 A 
ATOM     19  O   UNL     1      42.920  17.181  22.144  0.00  0.00    -0.439 OA
ATOM     20  O   UNL     1      44.408  19.105  18.948  0.00  0.00    -0.301 OA
BRANCH  14  15
ATOM     15  O   UNL     1      40.388  21.555  18.352  0.00  0.00    -0.493 OA
ATOM     16  H   UNL     1      40.347  22.436  18.750  0.00  0.00    +0.402 HD
ENDBRANCH  14  15
ENDBRANCH   7   8
BRANCH  22  23
ATOM     23  O   UNL     1      48.612  15.759  16.898  0.00  0.00    -0.305 OA
ATOM     24  C   UNL     1      48.753  14.452  17.460  0.00  0.00    +0.241 C 
ENDBRANCH  22  23
BRANCH  25  26
ATOM     26  O   UNL     1      50.388  17.655  17.814  0.00  0.00    -0.480 OA
ATOM     27  H   UNL     1      50.983  18.164  18.382  0.00  0.00    +0.386 HD
ENDBRANCH  25  26
BRANCH   5   4
ATOM      4  C   UNL     1      49.616  19.740  19.554  0.00  0.00    +0.082 C 
BRANCH   4   3
ATOM      3  C   UNL     1      49.671  20.911  18.572  0.00  0.00    +0.018 C 
BRANCH   3   2
ATOM      1  C   UNL     1      52.041  20.489  19.246  0.00  0.00    +0.014 C 
ATOM      2  C   UNL     1      51.131  21.289  18.311  0.00  0.00    -0.026 C 
ATOM     28  C   UNL     1      51.488  20.973  16.857  0.00  0.00    +0.014 C 
ENDBRANCH   3   2
ENDBRANCH   4   3
ENDBRANCH   5   4
TORSDOF 7
ENDMDL
MODEL 4
REMARK VINA RESULT:      -6.1      2.275      3.937
REMARK  Name = ZINC95486048
REMARK  10 active torsions:
REMARK  status: ('A' for Active; 'I' for Inactive)
REMARK    1  A    between atoms: C1_1  and  C2_2
REMARK    2  A    between atoms: C2_2  and  C3_3
REMARK    3  A    between atoms: C2_2  and  C4_4
REMARK    4  A    between atoms: C4_4  and  C5_5
REMARK    5  A    between atoms: C5_5  and  C6_6
REMARK    6  A    between atoms: C8_8  and  C13_15
REMARK    7  A    between atoms: C10_10  and  O2_13
REMARK    8  A    between atoms: C11_11  and  O1_12
REMARK    9  A    between atoms: O2_13  and  C12_14
REMARK   10  A    between atoms: C19_23  and  O5_27
REMARK                            x       y       z     vdW  Elec       q    Type
REMARK                         _______ _______ _______ _____ _____    ______ ____
ROOT
ATOM      5  C   UNL     1      50.634  17.536  16.755  0.00  0.00    -0.064 A 
ATOM      6  C   UNL     1      49.334  17.721  17.188  0.00  0.00    +0.011 A 
ATOM      7  C   UNL     1      48.565  16.635  17.561  0.00  0.00    -0.057 A 
ATOM     21  C   UNL     1      49.092  15.358  17.503  0.00  0.00    -0.034 A 
ATOM     22  C   UNL     1      50.395  15.166  17.071  0.00  0.00    +0.107 A 
ATOM     25  C   UNL     1      51.167  16.259  16.689  0.00  0.00    +0.087 A 
ENDROOT
BRANCH   7   8
ATOM      8  C   UNL     1      47.148  16.842  18.031  0.00  0.00    +0.240 C 
ATOM      9  C   UNL     1      46.936  16.102  19.360  0.00  0.00    +0.040 C 
ATOM     10  C   UNL     1      45.509  16.370  19.801  0.00  0.00    +0.402 C 
ATOM     11  C   UNL     1      45.003  17.736  19.595  0.00  0.00    -0.263 A 
ATOM     12  C   UNL     1      43.807  18.150  20.188  0.00  0.00    +0.135 A 
ATOM     13  C   UNL     1      43.352  19.421  19.978  0.00  0.00    -0.048 A 
ATOM     14  C   UNL     1      44.074  20.303  19.178  0.00  0.00    +0.181 A 
ATOM     17  C   UNL     1      45.264  19.906  18.586  0.00  0.00    -0.045 A 
ATOM     18  C   UNL     1      45.742  18.621  18.790  0.00  0.00    +0.199 A 
ATOM     19  O   UNL     1      44.820  15.503  20.298  0.00  0.00    -0.439 OA
ATOM     20  O   UNL     1      46.908  18.236  18.223  0.00  0.00    -0.301 OA
BRANCH  14  15
ATOM     15  O   UNL     1      43.608  21.562  18.976  0.00  0.00    -0.493 OA
ATOM     16  H   UNL     1      42.846  21.791  19.524  0.00  0.00    +0.402 HD
ENDBRANCH  14  15
ENDBRANCH   7   8
BRANCH  22  23
ATOM     23  O   UNL     1      50.916  13.910  17.014  0.00  0.00    -0.305 OA
ATOM     24  C   UNL     1      50.181  12.873  17.667  0.00  0.00    +0.241 C 
ENDBRANCH  22  23
BRANCH  25  26
ATOM     26  O   UNL     1      52.444  16.074  16.259  0.00  0.00    -0.480 OA
ATOM     27  H   UNL     1      52.515  15.871  15.316  0.00  0.00    +0.386 HD
ENDBRANCH  25  26
BRANCH   5   4
ATOM      4  C   UNL     1      51.470  18.723  16.349  0.00  0.00    +0.082 C 
BRANCH   4   3
ATOM      3  C   UNL     1      52.056  19.384  17.598  0.00  0.00    +0.018 C 
BRANCH   3   2
ATOM      1  C   UNL     1      51.459  21.364  16.194  0.00  0.00    +0.014 C 
ATOM      2  C   UNL     1      51.659  20.862  17.626  0.00  0.00    -0.026 C 
ATOM     28  C   UNL     1      50.356  21.026  18.410  0.00  0.00    +0.014 C 
ENDBRANCH   3   2
ENDBRANCH   4   3
ENDBRANCH   5   4
TORSDOF 7
ENDMDL
MODEL 5
REMARK VINA RESULT:      -5.9      2.267      6.555
REMARK  Name = ZINC95486048
REMARK  10 active torsions:
REMARK  status: ('A' for Active; 'I' for Inactive)
REMARK    1  A    between atoms: C1_1  and  C2_2
REMARK    2  A    between atoms: C2_2  and  C3_3
REMARK    3  A    between atoms: C2_2  and  C4_4
REMARK    4  A    between atoms: C4_4  and  C5_5
REMARK    5  A    between atoms: C5_5  and  C6_6
REMARK    6  A    between atoms: C8_8  and  C13_15
REMARK    7  A    between atoms: C10_10  and  O2_13
REMARK    8  A    between atoms: C11_11  and  O1_12
REMARK    9  A    between atoms: O2_13  and  C12_14
REMARK   10  A    between atoms: C19_23  and  O5_27
REMARK                            x       y       z     vdW  Elec       q    Type
REMARK                         _______ _______ _______ _____ _____    ______ ____
ROOT
ATOM      5  C   UNL     1      47.328  19.915  18.996  0.00  0.00    -0.064 A 
ATOM      6  C   UNL     1      47.506  18.543  18.987  0.00  0.00    +0.011 A 
ATOM      7  C   UNL     1      46.422  17.703  18.824  0.00  0.00    -0.057 A 
ATOM     21  C   UNL     1      45.152  18.229  18.670  0.00  0.00    -0.034 A 
ATOM     22  C   UNL     1      44.966  19.602  18.679  0.00  0.00    +0.107 A 
ATOM     25  C   UNL     1      46.058  20.449  18.848  0.00  0.00    +0.087 A 
ENDROOT
BRANCH   7   8
ATOM      8  C   UNL     1      46.621  16.208  18.815  0.00  0.00    +0.240 C 
ATOM      9  C   UNL     1      45.421  15.527  19.486  0.00  0.00    +0.040 C 
ATOM     10  C   UNL     1      45.660  14.029  19.420  0.00  0.00    +0.402 C 
ATOM     11  C   UNL     1      46.236  13.511  18.170  0.00  0.00    -0.263 A 
ATOM     12  C   UNL     1      46.260  12.137  17.912  0.00  0.00    +0.135 A 
ATOM     13  C   UNL     1      46.806  11.675  16.747  0.00  0.00    -0.048 A 
ATOM     14  C   UNL     1      47.336  12.568  15.819  0.00  0.00    +0.181 A 
ATOM     17  C   UNL     1      47.316  13.933  16.060  0.00  0.00    -0.045 A 
ATOM     18  C   UNL     1      46.764  14.419  17.236  0.00  0.00    +0.199 A 
ATOM     19  O   UNL     1      45.389  13.298  20.349  0.00  0.00    -0.439 OA
ATOM     20  O   UNL     1      46.733  15.751  17.467  0.00  0.00    -0.301 OA
BRANCH  14  15
ATOM     15  O   UNL     1      47.879  12.095  14.668  0.00  0.00    -0.493 OA
ATOM     16  H   UNL     1      48.330  12.769  14.141  0.00  0.00    +0.402 HD
ENDBRANCH  14  15
ENDBRANCH   7   8
BRANCH  22  23
ATOM     23  O   UNL     1      43.718  20.122  18.527  0.00  0.00    -0.305 OA
ATOM     24  C   UNL     1      42.771  19.846  19.561  0.00  0.00    +0.241 C 
ENDBRANCH  22  23
BRANCH  25  26
ATOM     26  O   UNL     1      45.879  21.797  18.863  0.00  0.00    -0.480 OA
ATOM     27  H   UNL     1      44.966  22.070  19.024  0.00  0.00    +0.386 HD
ENDBRANCH  25  26
BRANCH   5   4
ATOM      4  C   UNL     1      48.513  20.828  19.173  0.00  0.00    +0.082 C 
BRANCH   4   3
ATOM      3  C   UNL     1      49.769  20.145  18.628  0.00  0.00    +0.018 C 
BRANCH   3   2
ATOM      1  C   UNL     1      51.876  21.276  19.351  0.00  0.00    +0.014 C 
ATOM      2  C   UNL     1      50.807  21.206  18.259  0.00  0.00    -0.026 C 
ATOM     28  C   UNL     1      51.463  20.836  16.926  0.00  0.00    +0.014 C 
ENDBRANCH   3   2
ENDBRANCH   4   3
ENDBRANCH   5   4
TORSDOF 7
ENDMDL
MODEL 6
REMARK VINA RESULT:      -5.9      2.126      8.222
REMARK  Name = ZINC95486048
REMARK  10 active torsions:
REMARK  status: ('A' for Active; 'I' for Inactive)
REMARK    1  A    between atoms: C1_1  and  C2_2
REMARK    2  A    between atoms: C2_2  and  C3_3
REMARK    3  A    between atoms: C2_2  and  C4_4
REMARK    4  A    between atoms: C4_4  and  C5_5
REMARK    5  A    between atoms: C5_5  and  C6_6
REMARK    6  A    between atoms: C8_8  and  C13_15
REMARK    7  A    between atoms: C10_10  and  O2_13
REMARK    8  A    between atoms: C11_11  and  O1_12
REMARK    9  A    between atoms: O2_13  and  C12_14
REMARK   10  A    between atoms: C19_23  and  O5_27
REMARK                            x       y       z     vdW  Elec       q    Type
REMARK                         _______ _______ _______ _____ _____    ______ ____
ROOT
ATOM      5  C   UNL     1      45.013  20.537  20.808  0.00  0.00    -0.064 A 
ATOM      6  C   UNL     1      46.131  19.928  20.268  0.00  0.00    +0.011 A 
ATOM      7  C   UNL     1      47.358  20.561  20.315  0.00  0.00    -0.057 A 
ATOM     21  C   UNL     1      47.475  21.807  20.903  0.00  0.00    -0.034 A 
ATOM     22  C   UNL     1      46.359  22.423  21.446  0.00  0.00    +0.107 A 
ATOM     25  C   UNL     1      45.121  21.788  21.393  0.00  0.00    +0.087 A 
ENDROOT
BRANCH   7   8
ATOM      8  C   UNL     1      48.574  19.892  19.724  0.00  0.00    +0.240 C 
ATOM      9  C   UNL     1      48.177  18.527  19.144  0.00  0.00    +0.040 C 
ATOM     10  C   UNL     1      49.427  17.917  18.538  0.00  0.00    +0.402 C 
ATOM     11  C   UNL     1      50.317  18.832  17.806  0.00  0.00    -0.263 A 
ATOM     12  C   UNL     1      51.349  18.334  17.006  0.00  0.00    +0.135 A 
ATOM     13  C   UNL     1      52.169  19.201  16.339  0.00  0.00    -0.048 A 
ATOM     14  C   UNL     1      51.978  20.576  16.455  0.00  0.00    +0.181 A 
ATOM     17  C   UNL     1      50.956  21.083  17.244  0.00  0.00    -0.045 A 
ATOM     18  C   UNL     1      50.114  20.218  17.924  0.00  0.00    +0.199 A 
ATOM     19  O   UNL     1      49.680  16.735  18.650  0.00  0.00    -0.439 OA
ATOM     20  O   UNL     1      49.110  20.711  18.685  0.00  0.00    -0.301 OA
BRANCH  14  15
ATOM     15  O   UNL     1      52.802  21.426  15.791  0.00  0.00    -0.493 OA
ATOM     16  H   UNL     1      52.795  21.310  14.832  0.00  0.00    +0.402 HD
ENDBRANCH  14  15
ENDBRANCH   7   8
BRANCH  22  23
ATOM     23  O   UNL     1      46.472  23.649  22.026  0.00  0.00    -0.305 OA
ATOM     24  C   UNL     1      46.309  24.785  21.175  0.00  0.00    +0.241 C 
ENDBRANCH  22  23
BRANCH  25  26
ATOM     26  O   UNL     1      44.023  22.391  21.920  0.00  0.00    -0.480 OA
ATOM     27  H   UNL     1      43.717  23.159  21.418  0.00  0.00    +0.386 HD
ENDBRANCH  25  26
BRANCH   5   4
ATOM      4  C   UNL     1      43.677  19.843  20.755  0.00  0.00    +0.082 C 
BRANCH   4   3
ATOM      3  C   UNL     1      42.905  20.319  19.523  0.00  0.00    +0.018 C 
BRANCH   3   2
ATOM      1  C   UNL     1      41.220  19.079  20.890  0.00  0.00    +0.014 C 
ATOM      2  C   UNL     1      41.515  19.678  19.514  0.00  0.00    -0.026 C 
ATOM     28  C   UNL     1      40.465  20.742  19.185  0.00  0.00    +0.014 C 
ENDBRANCH   3   2
ENDBRANCH   4   3
ENDBRANCH   5   4
TORSDOF 7
ENDMDL
MODEL 7
REMARK VINA RESULT:      -5.7      2.929      7.136
REMARK  Name = ZINC95486048
REMARK  10 active torsions:
REMARK  status: ('A' for Active; 'I' for Inactive)
REMARK    1  A    between atoms: C1_1  and  C2_2
REMARK    2  A    between atoms: C2_2  and  C3_3
REMARK    3  A    between atoms: C2_2  and  C4_4
REMARK    4  A    between atoms: C4_4  and  C5_5
REMARK    5  A    between atoms: C5_5  and  C6_6
REMARK    6  A    between atoms: C8_8  and  C13_15
REMARK    7  A    between atoms: C10_10  and  O2_13
REMARK    8  A    between atoms: C11_11  and  O1_12
REMARK    9  A    between atoms: O2_13  and  C12_14
REMARK   10  A    between atoms: C19_23  and  O5_27
REMARK                            x       y       z     vdW  Elec       q    Type
REMARK                         _______ _______ _______ _____ _____    ______ ____
ROOT
ATOM      5  C   UNL     1      48.162  19.453  19.039  0.00  0.00    -0.064 A 
ATOM      6  C   UNL     1      47.655  18.167  18.990  0.00  0.00    +0.011 A 
ATOM      7  C   UNL     1      48.408  17.145  18.444  0.00  0.00    -0.057 A 
ATOM     21  C   UNL     1      49.672  17.403  17.945  0.00  0.00    -0.034 A 
ATOM     22  C   UNL     1      50.185  18.689  17.991  0.00  0.00    +0.107 A 
ATOM     25  C   UNL     1      49.424  19.720  18.536  0.00  0.00    +0.087 A 
ENDROOT
BRANCH   7   8
ATOM      8  C   UNL     1      47.852  15.744  18.392  0.00  0.00    +0.240 C 
ATOM      9  C   UNL     1      46.356  15.774  18.737  0.00  0.00    +0.040 C 
ATOM     10  C   UNL     1      45.844  14.348  18.638  0.00  0.00    +0.402 C 
ATOM     11  C   UNL     1      46.358  13.542  17.520  0.00  0.00    -0.263 A 
ATOM     12  C   UNL     1      45.768  12.317  17.196  0.00  0.00    +0.135 A 
ATOM     13  C   UNL     1      46.265  11.580  16.157  0.00  0.00    -0.048 A 
ATOM     14  C   UNL     1      47.354  12.044  15.425  0.00  0.00    +0.181 A 
ATOM     17  C   UNL     1      47.947  13.259  15.735  0.00  0.00    -0.045 A 
ATOM     18  C   UNL     1      47.455  14.021  16.783  0.00  0.00    +0.199 A 
ATOM     19  O   UNL     1      45.052  13.898  19.439  0.00  0.00    -0.439 OA
ATOM     20  O   UNL     1      48.025  15.211  17.079  0.00  0.00    -0.301 OA
BRANCH  14  15
ATOM     15  O   UNL     1      47.840  11.300  14.399  0.00  0.00    -0.493 OA
ATOM     16  H   UNL     1      48.009  10.377  14.630  0.00  0.00    +0.402 HD
ENDBRANCH  14  15
ENDBRANCH   7   8
BRANCH  22  23
ATOM     23  O   UNL     1      51.428  18.945  17.501  0.00  0.00    -0.305 OA
ATOM     24  C   UNL     1      51.579  18.934  16.080  0.00  0.00    +0.241 C 
ENDBRANCH  22  23
BRANCH  25  26
ATOM     26  O   UNL     1      49.921  20.985  18.578  0.00  0.00    -0.480 OA
ATOM     27  H   UNL     1      49.249  21.675  18.495  0.00  0.00    +0.386 HD
ENDBRANCH  25  26
BRANCH   5   4
ATOM      4  C   UNL     1      47.338  20.565  19.636  0.00  0.00    +0.082 C 
BRANCH   4   3
ATOM      3  C   UNL     1      46.310  21.044  18.609  0.00  0.00    +0.018 C 
BRANCH   3   2
ATOM      1  C   UNL     1      44.213  19.686  18.593  0.00  0.00    +0.014 C 
ATOM      2  C   UNL     1      44.903  20.911  19.196  0.00  0.00    -0.026 C 
ATOM     28  C   UNL     1      44.996  20.749  20.714  0.00  0.00    +0.014 C 
ENDBRANCH   3   2
ENDBRANCH   4   3
ENDBRANCH   5   4
TORSDOF 7
ENDMDL
MODEL 8
REMARK VINA RESULT:      -5.7      2.308      3.654
REMARK  Name = ZINC95486048
REMARK  10 active torsions:
REMARK  status: ('A' for Active; 'I' for Inactive)
REMARK    1  A    between atoms: C1_1  and  C2_2
REMARK    2  A    between atoms: C2_2  and  C3_3
REMARK    3  A    between atoms: C2_2  and  C4_4
REMARK    4  A    between atoms: C4_4  and  C5_5
REMARK    5  A    between atoms: C5_5  and  C6_6
REMARK    6  A    between atoms: C8_8  and  C13_15
REMARK    7  A    between atoms: C10_10  and  O2_13
REMARK    8  A    between atoms: C11_11  and  O1_12
REMARK    9  A    between atoms: O2_13  and  C12_14
REMARK   10  A    between atoms: C19_23  and  O5_27
REMARK                            x       y       z     vdW  Elec       q    Type
REMARK                         _______ _______ _______ _____ _____    ______ ____
ROOT
ATOM      5  C   UNL     1      49.802  17.249  17.307  0.00  0.00    -0.064 A 
ATOM      6  C   UNL     1      48.881  18.158  17.793  0.00  0.00    +0.011 A 
ATOM      7  C   UNL     1      47.635  17.729  18.211  0.00  0.00    -0.057 A 
ATOM     21  C   UNL     1      47.304  16.388  18.145  0.00  0.00    -0.034 A 
ATOM     22  C   UNL     1      48.223  15.472  17.659  0.00  0.00    +0.107 A 
ATOM     25  C   UNL     1      49.475  15.905  17.232  0.00  0.00    +0.087 A 
ENDROOT
BRANCH   7   8
ATOM      8  C   UNL     1      46.634  18.725  18.740  0.00  0.00    +0.240 C 
ATOM      9  C   UNL     1      45.532  17.983  19.509  0.00  0.00    +0.040 C 
ATOM     10  C   UNL     1      44.574  19.032  20.044  0.00  0.00    +0.402 C 
ATOM     11  C   UNL     1      45.178  20.266  20.569  0.00  0.00    -0.263 A 
ATOM     12  C   UNL     1      44.414  21.176  21.306  0.00  0.00    +0.135 A 
ATOM     13  C   UNL     1      44.992  22.320  21.779  0.00  0.00    -0.048 A 
ATOM     14  C   UNL     1      46.337  22.581  21.531  0.00  0.00    +0.181 A 
ATOM     17  C   UNL     1      47.108  21.685  20.803  0.00  0.00    -0.045 A 
ATOM     18  C   UNL     1      46.537  20.519  20.318  0.00  0.00    +0.199 A 
ATOM     19  O   UNL     1      43.372  18.861  20.039  0.00  0.00    -0.439 OA
ATOM     20  O   UNL     1      47.290  19.640  19.618  0.00  0.00    -0.301 OA
BRANCH  14  15
ATOM     15  O   UNL     1      46.899  23.722  22.003  0.00  0.00    -0.493 OA
ATOM     16  H   UNL     1      46.506  24.041  22.827  0.00  0.00    +0.402 HD
ENDBRANCH  14  15
ENDBRANCH   7   8
BRANCH  22  23
ATOM     23  O   UNL     1      47.899  14.152  17.593  0.00  0.00    -0.305 OA
ATOM     24  C   UNL     1      46.816  13.791  16.734  0.00  0.00    +0.241 C 
ENDBRANCH  22  23
BRANCH  25  26
ATOM     26  O   UNL     1      50.378  15.009  16.750  0.00  0.00    -0.480 OA
ATOM     27  H   UNL     1      50.182  14.697  15.855  0.00  0.00    +0.386 HD
ENDBRANCH  25  26
BRANCH   5   4
ATOM      4  C   UNL     1      51.159  17.720  16.852  0.00  0.00    +0.082 C 
BRANCH   4   3
ATOM      3  C   UNL     1      51.759  18.644  17.914  0.00  0.00    +0.018 C 
BRANCH   3   2
ATOM      1  C   UNL     1      52.026  19.862  15.747  0.00  0.00    +0.014 C 
ATOM      2  C   UNL     1      52.150  19.976  17.268  0.00  0.00    -0.026 C 
ATOM     28  C   UNL     1      51.220  21.081  17.775  0.00  0.00    +0.014 C 
ENDBRANCH   3   2
ENDBRANCH   4   3
ENDBRANCH   5   4
TORSDOF 7
ENDMDL
MODEL 9
REMARK VINA RESULT:      -5.6      3.002      7.003
REMARK  Name = ZINC95486048
REMARK  10 active torsions:
REMARK  status: ('A' for Active; 'I' for Inactive)
REMARK    1  A    between atoms: C1_1  and  C2_2
REMARK    2  A    between atoms: C2_2  and  C3_3
REMARK    3  A    between atoms: C2_2  and  C4_4
REMARK    4  A    between atoms: C4_4  and  C5_5
REMARK    5  A    between atoms: C5_5  and  C6_6
REMARK    6  A    between atoms: C8_8  and  C13_15
REMARK    7  A    between atoms: C10_10  and  O2_13
REMARK    8  A    between atoms: C11_11  and  O1_12
REMARK    9  A    between atoms: O2_13  and  C12_14
REMARK   10  A    between atoms: C19_23  and  O5_27
REMARK                            x       y       z     vdW  Elec       q    Type
REMARK                         _______ _______ _______ _____ _____    ______ ____
ROOT
ATOM      5  C   UNL     1      49.056  19.661  18.951  0.00  0.00    -0.064 A 
ATOM      6  C   UNL     1      48.505  18.469  18.516  0.00  0.00    +0.011 A 
ATOM      7  C   UNL     1      49.203  17.661  17.639  0.00  0.00    -0.057 A 
ATOM     21  C   UNL     1      50.456  18.040  17.192  0.00  0.00    -0.034 A 
ATOM     22  C   UNL     1      51.013  19.233  17.624  0.00  0.00    +0.107 A 
ATOM     25  C   UNL     1      50.307  20.050  18.503  0.00  0.00    +0.087 A 
ENDROOT
BRANCH   7   8
ATOM      8  C   UNL     1      48.599  16.363  17.168  0.00  0.00    +0.240 C 
ATOM      9  C   UNL     1      49.706  15.310  17.011  0.00  0.00    +0.040 C 
ATOM     10  C   UNL     1      49.039  14.020  16.568  0.00  0.00    +0.402 C 
ATOM     11  C   UNL     1      47.754  13.693  17.204  0.00  0.00    -0.263 A 
ATOM     12  C   UNL     1      47.188  12.423  17.055  0.00  0.00    +0.135 A 
ATOM     13  C   UNL     1      45.990  12.142  17.649  0.00  0.00    -0.048 A 
ATOM     14  C   UNL     1      45.332  13.113  18.399  0.00  0.00    +0.181 A 
ATOM     17  C   UNL     1      45.884  14.377  18.556  0.00  0.00    -0.045 A 
ATOM     18  C   UNL     1      47.099  14.678  17.963  0.00  0.00    +0.199 A 
ATOM     19  O   UNL     1      49.540  13.296  15.733  0.00  0.00    -0.439 OA
ATOM     20  O   UNL     1      47.644  15.906  18.125  0.00  0.00    -0.301 OA
BRANCH  14  15
ATOM     15  O   UNL     1      44.141  12.822  18.980  0.00  0.00    -0.493 OA
ATOM     16  H   UNL     1      44.156  12.026  19.529  0.00  0.00    +0.402 HD
ENDBRANCH  14  15
ENDBRANCH   7   8
BRANCH  22  23
ATOM     23  O   UNL     1      52.245  19.608  17.185  0.00  0.00    -0.305 OA
ATOM     24  C   UNL     1      52.339  20.075  15.838  0.00  0.00    +0.241 C 
ENDBRANCH  22  23
BRANCH  25  26
ATOM     26  O   UNL     1      50.848  21.225  18.925  0.00  0.00    -0.480 OA
ATOM     27  H   UNL     1      51.781  21.333  18.694  0.00  0.00    +0.386 HD
ENDBRANCH  25  26
BRANCH   5   4
ATOM      4  C   UNL     1      48.292  20.539  19.908  0.00  0.00    +0.082 C 
BRANCH   4   3
ATOM      3  C   UNL     1      46.940  20.908  19.293  0.00  0.00    +0.018 C 
BRANCH   3   2
ATOM      1  C   UNL     1      46.541  22.377  21.275  0.00  0.00    +0.014 C 
ATOM      2  C   UNL     1      45.953  21.262  20.407  0.00  0.00    -0.026 C 
ATOM     28  C   UNL     1      44.636  21.737  19.790  0.00  0.00    +0.014 C 
ENDBRANCH   3   2
ENDBRANCH   4   3
ENDBRANCH   5   4
TORSDOF 7
ENDMDL
