MODEL 1
REMARK VINA RESULT:      -6.9      0.000      0.000
REMARK  Name = ZINC95486173
REMARK  14 active torsions:
REMARK  status: ('A' for Active; 'I' for Inactive)
REMARK    1  A    between atoms: C1_1  and  C2_2
REMARK    2  A    between atoms: C2_2  and  C3_4
REMARK    3  A    between atoms: C2_2  and  C10_11
REMARK    4  A    between atoms: C3_4  and  C4_5
REMARK    5  A    between atoms: C4_5  and  C5_6
REMARK    6  A    between atoms: C5_6  and  C7_8
REMARK    7  A    between atoms: C7_8  and  C8_9
REMARK    8  A    between atoms: C7_8  and  C9_10
REMARK    9  A    between atoms: C13_15  and  C31_38
REMARK   10  A    between atoms: C14_16  and  C30_37
REMARK   11  A    between atoms: C22_27  and  C29_36
REMARK   12  A    between atoms: C24_29  and  O2_35
REMARK   13  A    between atoms: C26_32  and  C27_33
REMARK   14  A    between atoms: C26_32  and  C28_34
REMARK                            x       y       z     vdW  Elec       q    Type
REMARK                         _______ _______ _______ _____ _____    ______ ____
ROOT
ATOM      3  C   UNL     1      49.663  19.011  19.706  0.00  0.00    +0.002 C 
ATOM      4  C   UNL     1      49.405  17.575  20.243  0.00  0.00    +0.004 C 
ATOM      5  C   UNL     1      47.918  17.523  20.678  0.00  0.00    +0.013 C 
ATOM      6  C   UNL     1      47.323  18.819  20.115  0.00  0.00    -0.049 C 
ATOM      7  C   UNL     1      47.049  18.596  18.624  0.00  0.00    +0.021 C 
ATOM      8  C   UNL     1      46.088  19.349  20.809  0.00  0.00    +0.021 C 
ATOM      9  C   UNL     1      44.918  18.377  20.646  0.00  0.00    +0.010 C 
ATOM     10  C   UNL     1      43.662  18.938  21.302  0.00  0.00    +0.024 C 
ATOM     11  C   UNL     1      43.297  20.333  20.826  0.00  0.00    +0.001 C 
ATOM     12  C   UNL     1      44.477  21.285  20.863  0.00  0.00    +0.001 C 
ATOM     13  C   UNL     1      44.791  21.576  22.346  0.00  0.00    +0.039 C 
ATOM     14  C   UNL     1      44.171  22.611  20.219  0.00  0.00    +0.004 C 
ATOM     15  C   UNL     1      43.100  22.845  19.475  0.00  0.00    +0.002 C 
ATOM     18  C   UNL     1      42.115  21.793  19.210  0.00  0.00    +0.375 C 
ATOM     19  O   UNL     1      41.043  22.054  18.701  0.00  0.00    -0.447 OA
ATOM     20  C   UNL     1      42.470  20.356  19.557  0.00  0.00    -0.080 C 
ATOM     21  C   UNL     1      41.140  19.608  19.790  0.00  0.00    +0.053 C 
ATOM     22  C   UNL     1      43.172  19.718  18.358  0.00  0.00    +0.064 C 
ATOM     23  C   UNL     1      45.719  20.701  20.193  0.00  0.00    +0.012 C 
ATOM     24  C   UNL     1      46.879  21.691  20.265  0.00  0.00    +0.007 C 
ATOM     25  C   UNL     1      48.156  21.120  19.628  0.00  0.00    +0.021 C 
ATOM     26  C   UNL     1      48.495  19.812  20.305  0.00  0.00    -0.044 C 
ATOM     27  C   UNL     1      48.792  20.051  21.793  0.00  0.00    +0.024 C 
ENDROOT
BRANCH   3   2
ATOM      1  C   UNL     1      51.419  20.768  19.420  0.00  0.00    +0.012 C 
ATOM      2  C   UNL     1      50.998  19.545  20.237  0.00  0.00    -0.012 C 
BRANCH   2  28
ATOM     28  C   UNL     1      52.067  18.457  20.115  0.00  0.00    +0.016 C 
BRANCH  28  29
ATOM     29  C   UNL     1      52.733  18.547  18.741  0.00  0.00    +0.050 C 
BRANCH  29  30
ATOM     30  C   UNL     1      52.222  17.436  17.861  0.00  0.00    -0.112 C 
ATOM     34  C   UNL     1      52.327  16.191  18.253  0.00  0.00    -0.008 C 
BRANCH  30  31
ATOM     31  C   UNL     1      51.592  17.758  16.531  0.00  0.00    +0.010 C 
ATOM     32  C   UNL     1      51.984  19.176  16.110  0.00  0.00    +0.024 C 
ATOM     33  C   UNL     1      50.070  17.664  16.651  0.00  0.00    +0.022 C 
ENDBRANCH  30  31
ENDBRANCH  29  30
ENDBRANCH  28  29
ENDBRANCH   2  28
ENDBRANCH   3   2
BRANCH  15  16
ATOM     16  O   UNL     1      42.912  24.087  18.946  0.00  0.00    -0.476 OA
ATOM     17  H   UNL     1      43.639  24.389  18.384  0.00  0.00    +0.399 HD
ENDBRANCH  15  16
TORSDOF 6
ENDMDL
MODEL 2
REMARK VINA RESULT:      -6.1      4.674      8.696
REMARK  Name = ZINC95486173
REMARK  14 active torsions:
REMARK  status: ('A' for Active; 'I' for Inactive)
REMARK    1  A    between atoms: C1_1  and  C2_2
REMARK    2  A    between atoms: C2_2  and  C3_4
REMARK    3  A    between atoms: C2_2  and  C10_11
REMARK    4  A    between atoms: C3_4  and  C4_5
REMARK    5  A    between atoms: C4_5  and  C5_6
REMARK    6  A    between atoms: C5_6  and  C7_8
REMARK    7  A    between atoms: C7_8  and  C8_9
REMARK    8  A    between atoms: C7_8  and  C9_10
REMARK    9  A    between atoms: C13_15  and  C31_38
REMARK   10  A    between atoms: C14_16  and  C30_37
REMARK   11  A    between atoms: C22_27  and  C29_36
REMARK   12  A    between atoms: C24_29  and  O2_35
REMARK   13  A    between atoms: C26_32  and  C27_33
REMARK   14  A    between atoms: C26_32  and  C28_34
REMARK                            x       y       z     vdW  Elec       q    Type
REMARK                         _______ _______ _______ _____ _____    ______ ____
ROOT
ATOM      3  C   UNL     1      47.229  18.627  19.446  0.00  0.00    +0.002 C 
ATOM      4  C   UNL     1      47.680  18.197  20.871  0.00  0.00    +0.004 C 
ATOM      5  C   UNL     1      48.042  16.692  20.787  0.00  0.00    +0.013 C 
ATOM      6  C   UNL     1      48.059  16.399  19.282  0.00  0.00    -0.049 C 
ATOM      7  C   UNL     1      49.393  16.904  18.723  0.00  0.00    +0.021 C 
ATOM      8  C   UNL     1      47.820  14.962  18.874  0.00  0.00    +0.021 C 
ATOM      9  C   UNL     1      48.953  14.064  19.374  0.00  0.00    +0.010 C 
ATOM     10  C   UNL     1      48.737  12.627  18.917  0.00  0.00    +0.024 C 
ATOM     11  C   UNL     1      48.538  12.487  17.419  0.00  0.00    +0.001 C 
ATOM     12  C   UNL     1      47.503  13.456  16.879  0.00  0.00    +0.001 C 
ATOM     13  C   UNL     1      46.122  12.987  17.385  0.00  0.00    +0.039 C 
ATOM     14  C   UNL     1      47.436  13.453  15.375  0.00  0.00    +0.004 C 
ATOM     15  C   UNL     1      48.337  12.878  14.594  0.00  0.00    +0.002 C 
ATOM     18  C   UNL     1      49.506  12.195  15.157  0.00  0.00    +0.375 C 
ATOM     19  O   UNL     1      50.221  11.503  14.460  0.00  0.00    -0.447 OA
ATOM     20  C   UNL     1      49.827  12.391  16.629  0.00  0.00    -0.080 C 
ATOM     21  C   UNL     1      50.624  11.150  17.085  0.00  0.00    +0.053 C 
ATOM     22  C   UNL     1      50.727  13.618  16.779  0.00  0.00    +0.064 C 
ATOM     23  C   UNL     1      47.748  14.889  17.347  0.00  0.00    +0.012 C 
ATOM     24  C   UNL     1      46.677  15.822  16.787  0.00  0.00    +0.007 C 
ATOM     25  C   UNL     1      46.874  17.269  17.265  0.00  0.00    +0.021 C 
ATOM     26  C   UNL     1      46.894  17.284  18.776  0.00  0.00    -0.044 C 
ATOM     27  C   UNL     1      45.543  16.800  19.325  0.00  0.00    +0.024 C 
ENDROOT
BRANCH   3   2
ATOM      1  C   UNL     1      46.114  20.683  18.563  0.00  0.00    +0.012 C 
ATOM      2  C   UNL     1      45.975  19.505  19.529  0.00  0.00    -0.012 C 
BRANCH   2  28
ATOM     28  C   UNL     1      45.815  20.032  20.956  0.00  0.00    +0.016 C 
BRANCH  28  29
ATOM     29  C   UNL     1      44.367  20.476  21.176  0.00  0.00    +0.050 C 
BRANCH  29  30
ATOM     30  C   UNL     1      43.479  19.264  21.277  0.00  0.00    -0.112 C 
ATOM     34  C   UNL     1      43.691  18.373  22.214  0.00  0.00    -0.008 C 
BRANCH  30  31
ATOM     31  C   UNL     1      42.346  19.076  20.301  0.00  0.00    +0.010 C 
ATOM     32  C   UNL     1      42.258  20.296  19.382  0.00  0.00    +0.024 C 
ATOM     33  C   UNL     1      41.032  18.920  21.068  0.00  0.00    +0.022 C 
ENDBRANCH  30  31
ENDBRANCH  29  30
ENDBRANCH  28  29
ENDBRANCH   2  28
ENDBRANCH   3   2
BRANCH  15  16
ATOM     16  O   UNL     1      48.177  12.925  13.241  0.00  0.00    -0.476 OA
ATOM     17  H   UNL     1      47.449  13.491  12.951  0.00  0.00    +0.399 HD
ENDBRANCH  15  16
TORSDOF 6
ENDMDL
MODEL 3
REMARK VINA RESULT:      -6.0      0.835      1.537
REMARK  Name = ZINC95486173
REMARK  14 active torsions:
REMARK  status: ('A' for Active; 'I' for Inactive)
REMARK    1  A    between atoms: C1_1  and  C2_2
REMARK    2  A    between atoms: C2_2  and  C3_4
REMARK    3  A    between atoms: C2_2  and  C10_11
REMARK    4  A    between atoms: C3_4  and  C4_5
REMARK    5  A    between atoms: C4_5  and  C5_6
REMARK    6  A    between atoms: C5_6  and  C7_8
REMARK    7  A    between atoms: C7_8  and  C8_9
REMARK    8  A    between atoms: C7_8  and  C9_10
REMARK    9  A    between atoms: C13_15  and  C31_38
REMARK   10  A    between atoms: C14_16  and  C30_37
REMARK   11  A    between atoms: C22_27  and  C29_36
REMARK   12  A    between atoms: C24_29  and  O2_35
REMARK   13  A    between atoms: C26_32  and  C27_33
REMARK   14  A    between atoms: C26_32  and  C28_34
REMARK                            x       y       z     vdW  Elec       q    Type
REMARK                         _______ _______ _______ _____ _____    ______ ____
ROOT
ATOM      3  C   UNL     1      49.782  18.588  19.634  0.00  0.00    +0.002 C 
ATOM      4  C   UNL     1      49.454  17.166  20.171  0.00  0.00    +0.004 C 
ATOM      5  C   UNL     1      47.973  17.195  20.627  0.00  0.00    +0.013 C 
ATOM      6  C   UNL     1      47.441  18.523  20.075  0.00  0.00    -0.049 C 
ATOM      7  C   UNL     1      47.135  18.321  18.588  0.00  0.00    +0.021 C 
ATOM      8  C   UNL     1      46.248  19.119  20.788  0.00  0.00    +0.021 C 
ATOM      9  C   UNL     1      45.024  18.213  20.640  0.00  0.00    +0.010 C 
ATOM     10  C   UNL     1      43.810  18.840  21.315  0.00  0.00    +0.024 C 
ATOM     11  C   UNL     1      43.516  20.255  20.847  0.00  0.00    +0.001 C 
ATOM     12  C   UNL     1      44.746  21.140  20.869  0.00  0.00    +0.001 C 
ATOM     13  C   UNL     1      45.097  21.409  22.348  0.00  0.00    +0.039 C 
ATOM     14  C   UNL     1      44.504  22.483  20.233  0.00  0.00    +0.004 C 
ATOM     15  C   UNL     1      43.438  22.778  19.505  0.00  0.00    +0.002 C 
ATOM     18  C   UNL     1      42.393  21.782  19.252  0.00  0.00    +0.375 C 
ATOM     19  O   UNL     1      41.330  22.103  18.759  0.00  0.00    -0.447 OA
ATOM     20  C   UNL     1      42.673  20.327  19.590  0.00  0.00    -0.080 C 
ATOM     21  C   UNL     1      41.307  19.652  19.841  0.00  0.00    +0.053 C 
ATOM     22  C   UNL     1      43.322  19.654  18.380  0.00  0.00    +0.064 C 
ATOM     23  C   UNL     1      45.945  20.490  20.180  0.00  0.00    +0.012 C 
ATOM     24  C   UNL     1      47.158  21.415  20.238  0.00  0.00    +0.007 C 
ATOM     25  C   UNL     1      48.393  20.777  19.582  0.00  0.00    +0.021 C 
ATOM     26  C   UNL     1      48.669  19.450  20.251  0.00  0.00    -0.044 C 
ATOM     27  C   UNL     1      48.999  19.667  21.735  0.00  0.00    +0.024 C 
ENDROOT
BRANCH   3   2
ATOM      1  C   UNL     1      51.795  19.978  19.118  0.00  0.00    +0.012 C 
ATOM      2  C   UNL     1      51.152  19.046  20.146  0.00  0.00    -0.012 C 
BRANCH   2  28
ATOM     28  C   UNL     1      52.050  17.826  20.361  0.00  0.00    +0.016 C 
BRANCH  28  29
ATOM     29  C   UNL     1      52.861  17.559  19.092  0.00  0.00    +0.050 C 
BRANCH  29  30
ATOM     30  C   UNL     1      52.333  16.325  18.407  0.00  0.00    -0.112 C 
ATOM     34  C   UNL     1      51.838  16.410  17.197  0.00  0.00    -0.008 C 
BRANCH  30  31
ATOM     31  C   UNL     1      52.373  14.996  19.114  0.00  0.00    +0.010 C 
ATOM     32  C   UNL     1      53.816  14.670  19.506  0.00  0.00    +0.024 C 
ATOM     33  C   UNL     1      51.838  13.906  18.183  0.00  0.00    +0.022 C 
ENDBRANCH  30  31
ENDBRANCH  29  30
ENDBRANCH  28  29
ENDBRANCH   2  28
ENDBRANCH   3   2
BRANCH  15  16
ATOM     16  O   UNL     1      43.311  24.029  18.981  0.00  0.00    -0.476 OA
ATOM     17  H   UNL     1      44.025  24.277  18.379  0.00  0.00    +0.399 HD
ENDBRANCH  15  16
TORSDOF 6
ENDMDL
MODEL 4
REMARK VINA RESULT:      -5.6      4.631      8.918
REMARK  Name = ZINC95486173
REMARK  14 active torsions:
REMARK  status: ('A' for Active; 'I' for Inactive)
REMARK    1  A    between atoms: C1_1  and  C2_2
REMARK    2  A    between atoms: C2_2  and  C3_4
REMARK    3  A    between atoms: C2_2  and  C10_11
REMARK    4  A    between atoms: C3_4  and  C4_5
REMARK    5  A    between atoms: C4_5  and  C5_6
REMARK    6  A    between atoms: C5_6  and  C7_8
REMARK    7  A    between atoms: C7_8  and  C8_9
REMARK    8  A    between atoms: C7_8  and  C9_10
REMARK    9  A    between atoms: C13_15  and  C31_38
REMARK   10  A    between atoms: C14_16  and  C30_37
REMARK   11  A    between atoms: C22_27  and  C29_36
REMARK   12  A    between atoms: C24_29  and  O2_35
REMARK   13  A    between atoms: C26_32  and  C27_33
REMARK   14  A    between atoms: C26_32  and  C28_34
REMARK                            x       y       z     vdW  Elec       q    Type
REMARK                         _______ _______ _______ _____ _____    ______ ____
ROOT
ATOM      3  C   UNL     1      46.404  18.149  19.284  0.00  0.00    +0.002 C 
ATOM      4  C   UNL     1      47.111  18.028  20.663  0.00  0.00    +0.004 C 
ATOM      5  C   UNL     1      47.991  16.753  20.600  0.00  0.00    +0.013 C 
ATOM      6  C   UNL     1      47.974  16.364  19.117  0.00  0.00    -0.049 C 
ATOM      7  C   UNL     1      48.971  17.268  18.387  0.00  0.00    +0.021 C 
ATOM      8  C   UNL     1      48.242  14.910  18.800  0.00  0.00    +0.021 C 
ATOM      9  C   UNL     1      49.667  14.524  19.202  0.00  0.00    +0.010 C 
ATOM     10  C   UNL     1      49.952  13.073  18.835  0.00  0.00    +0.024 C 
ATOM     11  C   UNL     1      49.678  12.749  17.376  0.00  0.00    +0.001 C 
ATOM     12  C   UNL     1      48.316  13.233  16.921  0.00  0.00    +0.001 C 
ATOM     13  C   UNL     1      47.256  12.342  17.603  0.00  0.00    +0.039 C 
ATOM     14  C   UNL     1      48.115  13.083  15.437  0.00  0.00    +0.004 C 
ATOM     15  C   UNL     1      49.087  12.811  14.580  0.00  0.00    +0.002 C 
ATOM     18  C   UNL     1      50.471  12.642  15.032  0.00  0.00    +0.375 C 
ATOM     19  O   UNL     1      51.323  12.200  14.286  0.00  0.00    -0.447 OA
ATOM     20  C   UNL     1      50.834  13.060  16.447  0.00  0.00    -0.080 C 
ATOM     21  C   UNL     1      52.069  12.231  16.859  0.00  0.00    +0.053 C 
ATOM     22  C   UNL     1      51.231  14.536  16.440  0.00  0.00    +0.064 C 
ATOM     23  C   UNL     1      48.059  14.692  17.297  0.00  0.00    +0.012 C 
ATOM     24  C   UNL     1      46.674  15.127  16.826  0.00  0.00    +0.007 C 
ATOM     25  C   UNL     1      46.371  16.582  17.218  0.00  0.00    +0.021 C 
ATOM     26  C   UNL     1      46.523  16.726  18.714  0.00  0.00    -0.044 C 
ATOM     27  C   UNL     1      45.502  15.834  19.436  0.00  0.00    +0.024 C 
ENDROOT
BRANCH   3   2
ATOM      1  C   UNL     1      44.543  19.608  18.470  0.00  0.00    +0.012 C 
ATOM      2  C   UNL     1      44.929  18.520  19.475  0.00  0.00    -0.012 C 
BRANCH   2  28
ATOM     28  C   UNL     1      44.714  19.040  20.897  0.00  0.00    +0.016 C 
BRANCH  28  29
ATOM     29  C   UNL     1      44.032  20.409  20.843  0.00  0.00    +0.050 C 
BRANCH  29  30
ATOM     30  C   UNL     1      44.880  21.423  21.565  0.00  0.00    -0.112 C 
ATOM     34  C   UNL     1      45.730  21.030  22.482  0.00  0.00    -0.008 C 
BRANCH  30  31
ATOM     31  C   UNL     1      44.751  22.886  21.234  0.00  0.00    +0.010 C 
ATOM     32  C   UNL     1      44.173  23.041  19.825  0.00  0.00    +0.024 C 
ATOM     33  C   UNL     1      46.129  23.547  21.295  0.00  0.00    +0.022 C 
ENDBRANCH  30  31
ENDBRANCH  29  30
ENDBRANCH  28  29
ENDBRANCH   2  28
ENDBRANCH   3   2
BRANCH  15  16
ATOM     16  O   UNL     1      48.795  12.686  13.255  0.00  0.00    -0.476 OA
ATOM     17  H   UNL     1      48.442  13.491  12.853  0.00  0.00    +0.399 HD
ENDBRANCH  15  16
TORSDOF 6
ENDMDL
MODEL 5
REMARK VINA RESULT:      -5.5      4.957      8.361
REMARK  Name = ZINC95486173
REMARK  14 active torsions:
REMARK  status: ('A' for Active; 'I' for Inactive)
REMARK    1  A    between atoms: C1_1  and  C2_2
REMARK    2  A    between atoms: C2_2  and  C3_4
REMARK    3  A    between atoms: C2_2  and  C10_11
REMARK    4  A    between atoms: C3_4  and  C4_5
REMARK    5  A    between atoms: C4_5  and  C5_6
REMARK    6  A    between atoms: C5_6  and  C7_8
REMARK    7  A    between atoms: C7_8  and  C8_9
REMARK    8  A    between atoms: C7_8  and  C9_10
REMARK    9  A    between atoms: C13_15  and  C31_38
REMARK   10  A    between atoms: C14_16  and  C30_37
REMARK   11  A    between atoms: C22_27  and  C29_36
REMARK   12  A    between atoms: C24_29  and  O2_35
REMARK   13  A    between atoms: C26_32  and  C27_33
REMARK   14  A    between atoms: C26_32  and  C28_34
REMARK                            x       y       z     vdW  Elec       q    Type
REMARK                         _______ _______ _______ _____ _____    ______ ____
ROOT
ATOM      3  C   UNL     1      47.400  17.916  19.541  0.00  0.00    +0.002 C 
ATOM      4  C   UNL     1      47.826  17.336  20.919  0.00  0.00    +0.004 C 
ATOM      5  C   UNL     1      48.188  15.847  20.682  0.00  0.00    +0.013 C 
ATOM      6  C   UNL     1      48.230  15.715  19.155  0.00  0.00    -0.049 C 
ATOM      7  C   UNL     1      49.574  16.273  18.676  0.00  0.00    +0.021 C 
ATOM      8  C   UNL     1      47.997  14.331  18.592  0.00  0.00    +0.021 C 
ATOM      9  C   UNL     1      49.120  13.382  19.013  0.00  0.00    +0.010 C 
ATOM     10  C   UNL     1      48.910  12.001  18.403  0.00  0.00    +0.024 C 
ATOM     11  C   UNL     1      48.736  12.022  16.895  0.00  0.00    +0.001 C 
ATOM     12  C   UNL     1      47.712  13.046  16.444  0.00  0.00    +0.001 C 
ATOM     13  C   UNL     1      46.322  12.531  16.873  0.00  0.00    +0.039 C 
ATOM     14  C   UNL     1      47.671  13.203  14.947  0.00  0.00    +0.004 C 
ATOM     15  C   UNL     1      48.585  12.713  14.125  0.00  0.00    +0.002 C 
ATOM     18  C   UNL     1      49.742  11.970  14.631  0.00  0.00    +0.375 C 
ATOM     19  O   UNL     1      50.469  11.353  13.877  0.00  0.00    -0.447 OA
ATOM     20  C   UNL     1      50.039  12.007  16.121  0.00  0.00    -0.080 C 
ATOM     21  C   UNL     1      50.826  10.722  16.456  0.00  0.00    +0.053 C 
ATOM     22  C   UNL     1      50.938  13.208  16.416  0.00  0.00    +0.064 C 
ATOM     23  C   UNL     1      47.950  14.421  17.065  0.00  0.00    +0.012 C 
ATOM     24  C   UNL     1      46.890  15.411  16.590  0.00  0.00    +0.007 C 
ATOM     25  C   UNL     1      47.082  16.799  17.223  0.00  0.00    +0.021 C 
ATOM     26  C   UNL     1      47.075  16.653  18.727  0.00  0.00    -0.044 C 
ATOM     27  C   UNL     1      45.714  16.117  19.198  0.00  0.00    +0.024 C 
ENDROOT
BRANCH   3   2
ATOM      1  C   UNL     1      45.915  19.578  18.408  0.00  0.00    +0.012 C 
ATOM      2  C   UNL     1      46.147  18.784  19.696  0.00  0.00    -0.012 C 
BRANCH   2  28
ATOM     28  C   UNL     1      46.337  19.752  20.865  0.00  0.00    +0.016 C 
BRANCH  28  29
ATOM     29  C   UNL     1      47.169  20.951  20.405  0.00  0.00    +0.050 C 
BRANCH  29  30
ATOM     30  C   UNL     1      48.494  20.949  21.121  0.00  0.00    -0.112 C 
ATOM     34  C   UNL     1      48.530  21.013  22.429  0.00  0.00    -0.008 C 
BRANCH  30  31
ATOM     31  C   UNL     1      49.776  20.872  20.334  0.00  0.00    +0.010 C 
ATOM     32  C   UNL     1      49.454  20.795  18.841  0.00  0.00    +0.024 C 
ATOM     33  C   UNL     1      50.558  19.626  20.752  0.00  0.00    +0.022 C 
ENDBRANCH  30  31
ENDBRANCH  29  30
ENDBRANCH  28  29
ENDBRANCH   2  28
ENDBRANCH   3   2
BRANCH  15  16
ATOM     16  O   UNL     1      48.448  12.903  12.782  0.00  0.00    -0.476 OA
ATOM     17  H   UNL     1      47.797  12.321  12.367  0.00  0.00    +0.399 HD
ENDBRANCH  15  16
TORSDOF 6
ENDMDL
MODEL 6
REMARK VINA RESULT:      -5.4      4.704      8.142
REMARK  Name = ZINC95486173
REMARK  14 active torsions:
REMARK  status: ('A' for Active; 'I' for Inactive)
REMARK    1  A    between atoms: C1_1  and  C2_2
REMARK    2  A    between atoms: C2_2  and  C3_4
REMARK    3  A    between atoms: C2_2  and  C10_11
REMARK    4  A    between atoms: C3_4  and  C4_5
REMARK    5  A    between atoms: C4_5  and  C5_6
REMARK    6  A    between atoms: C5_6  and  C7_8
REMARK    7  A    between atoms: C7_8  and  C8_9
REMARK    8  A    between atoms: C7_8  and  C9_10
REMARK    9  A    between atoms: C13_15  and  C31_38
REMARK   10  A    between atoms: C14_16  and  C30_37
REMARK   11  A    between atoms: C22_27  and  C29_36
REMARK   12  A    between atoms: C24_29  and  O2_35
REMARK   13  A    between atoms: C26_32  and  C27_33
REMARK   14  A    between atoms: C26_32  and  C28_34
REMARK                            x       y       z     vdW  Elec       q    Type
REMARK                         _______ _______ _______ _____ _____    ______ ____
ROOT
ATOM      3  C   UNL     1      49.955  18.606  19.053  0.00  0.00    +0.002 C 
ATOM      4  C   UNL     1      50.527  18.128  20.417  0.00  0.00    +0.004 C 
ATOM      5  C   UNL     1      50.317  16.593  20.473  0.00  0.00    +0.013 C 
ATOM      6  C   UNL     1      49.902  16.224  19.044  0.00  0.00    -0.049 C 
ATOM      7  C   UNL     1      51.173  16.169  18.190  0.00  0.00    +0.021 C 
ATOM      8  C   UNL     1      49.097  14.954  18.884  0.00  0.00    +0.021 C 
ATOM      9  C   UNL     1      49.928  13.734  19.288  0.00  0.00    +0.010 C 
ATOM     10  C   UNL     1      49.133  12.452  19.077  0.00  0.00    +0.024 C 
ATOM     11  C   UNL     1      48.575  12.305  17.672  0.00  0.00    +0.001 C 
ATOM     12  C   UNL     1      47.851  13.551  17.203  0.00  0.00    +0.001 C 
ATOM     13  C   UNL     1      46.538  13.655  18.009  0.00  0.00    +0.039 C 
ATOM     14  C   UNL     1      47.460  13.482  15.751  0.00  0.00    +0.004 C 
ATOM     15  C   UNL     1      47.913  12.570  14.904  0.00  0.00    +0.002 C 
ATOM     18  C   UNL     1      48.864  11.541  15.333  0.00  0.00    +0.375 C 
ATOM     19  O   UNL     1      49.124  10.593  14.619  0.00  0.00    -0.447 OA
ATOM     20  C   UNL     1      49.546  11.694  16.682  0.00  0.00    -0.080 C 
ATOM     21  C   UNL     1      49.942  10.277  17.150  0.00  0.00    +0.053 C 
ATOM     22  C   UNL     1      50.826  12.510  16.499  0.00  0.00    +0.064 C 
ATOM     23  C   UNL     1      48.673  14.820  17.420  0.00  0.00    +0.012 C 
ATOM     24  C   UNL     1      47.898  16.045  16.942  0.00  0.00    +0.007 C 
ATOM     25  C   UNL     1      48.685  17.345  17.177  0.00  0.00    +0.021 C 
ATOM     26  C   UNL     1      49.037  17.443  18.643  0.00  0.00    -0.044 C 
ATOM     27  C   UNL     1      47.756  17.524  19.488  0.00  0.00    +0.024 C 
ENDROOT
BRANCH   3   2
ATOM      1  C   UNL     1      49.821  21.044  18.514  0.00  0.00    +0.012 C 
ATOM      2  C   UNL     1      49.134  19.887  19.242  0.00  0.00    -0.012 C 
BRANCH   2  28
ATOM     28  C   UNL     1      49.031  20.212  20.733  0.00  0.00    +0.016 C 
BRANCH  28  29
ATOM     29  C   UNL     1      48.072  21.387  20.935  0.00  0.00    +0.050 C 
BRANCH  29  30
ATOM     30  C   UNL     1      46.663  20.941  20.643  0.00  0.00    -0.112 C 
ATOM     34  C   UNL     1      46.040  20.151  21.483  0.00  0.00    -0.008 C 
BRANCH  30  31
ATOM     31  C   UNL     1      45.970  21.404  19.388  0.00  0.00    +0.010 C 
ATOM     32  C   UNL     1      44.846  22.375  19.754  0.00  0.00    +0.024 C 
ATOM     33  C   UNL     1      45.382  20.197  18.655  0.00  0.00    +0.022 C 
ENDBRANCH  30  31
ENDBRANCH  29  30
ENDBRANCH  28  29
ENDBRANCH   2  28
ENDBRANCH   3   2
BRANCH  15  16
ATOM     16  O   UNL     1      47.488  12.591  13.609  0.00  0.00    -0.476 OA
ATOM     17  H   UNL     1      47.613  13.442  13.168  0.00  0.00    +0.399 HD
ENDBRANCH  15  16
TORSDOF 6
ENDMDL
MODEL 7
REMARK VINA RESULT:      -5.4      4.256      7.930
REMARK  Name = ZINC95486173
REMARK  14 active torsions:
REMARK  status: ('A' for Active; 'I' for Inactive)
REMARK    1  A    between atoms: C1_1  and  C2_2
REMARK    2  A    between atoms: C2_2  and  C3_4
REMARK    3  A    between atoms: C2_2  and  C10_11
REMARK    4  A    between atoms: C3_4  and  C4_5
REMARK    5  A    between atoms: C4_5  and  C5_6
REMARK    6  A    between atoms: C5_6  and  C7_8
REMARK    7  A    between atoms: C7_8  and  C8_9
REMARK    8  A    between atoms: C7_8  and  C9_10
REMARK    9  A    between atoms: C13_15  and  C31_38
REMARK   10  A    between atoms: C14_16  and  C30_37
REMARK   11  A    between atoms: C22_27  and  C29_36
REMARK   12  A    between atoms: C24_29  and  O2_35
REMARK   13  A    between atoms: C26_32  and  C27_33
REMARK   14  A    between atoms: C26_32  and  C28_34
REMARK                            x       y       z     vdW  Elec       q    Type
REMARK                         _______ _______ _______ _____ _____    ______ ____
ROOT
ATOM      3  C   UNL     1      46.223  19.004  20.820  0.00  0.00    +0.002 C 
ATOM      4  C   UNL     1      47.705  19.278  21.204  0.00  0.00    +0.004 C 
ATOM      5  C   UNL     1      48.505  18.007  20.822  0.00  0.00    +0.013 C 
ATOM      6  C   UNL     1      47.517  17.184  19.988  0.00  0.00    -0.049 C 
ATOM      7  C   UNL     1      47.496  17.775  18.574  0.00  0.00    +0.021 C 
ATOM      8  C   UNL     1      47.758  15.692  19.937  0.00  0.00    +0.021 C 
ATOM      9  C   UNL     1      49.082  15.383  19.237  0.00  0.00    +0.010 C 
ATOM     10  C   UNL     1      49.298  13.877  19.142  0.00  0.00    +0.024 C 
ATOM     11  C   UNL     1      48.141  13.136  18.495  0.00  0.00    +0.001 C 
ATOM     12  C   UNL     1      46.801  13.519  19.093  0.00  0.00    +0.001 C 
ATOM     13  C   UNL     1      46.743  12.928  20.518  0.00  0.00    +0.039 C 
ATOM     14  C   UNL     1      45.641  12.932  18.335  0.00  0.00    +0.004 C 
ATOM     15  C   UNL     1      45.744  12.366  17.142  0.00  0.00    +0.002 C 
ATOM     18  C   UNL     1      47.033  12.281  16.451  0.00  0.00    +0.375 C 
ATOM     19  O   UNL     1      47.167  11.593  15.458  0.00  0.00    -0.447 OA
ATOM     20  C   UNL     1      48.202  13.095  16.982  0.00  0.00    -0.080 C 
ATOM     21  C   UNL     1      49.492  12.376  16.534  0.00  0.00    +0.053 C 
ATOM     22  C   UNL     1      48.177  14.478  16.332  0.00  0.00    +0.064 C 
ATOM     23  C   UNL     1      46.609  15.033  19.170  0.00  0.00    +0.012 C 
ATOM     24  C   UNL     1      45.253  15.366  19.786  0.00  0.00    +0.007 C 
ATOM     25  C   UNL     1      45.041  16.884  19.909  0.00  0.00    +0.021 C 
ATOM     26  C   UNL     1      46.179  17.471  20.711  0.00  0.00    -0.044 C 
ATOM     27  C   UNL     1      46.175  16.891  22.134  0.00  0.00    +0.024 C 
ENDROOT
BRANCH   3   2
ATOM      1  C   UNL     1      43.883  19.690  21.370  0.00  0.00    +0.012 C 
ATOM      2  C   UNL     1      45.289  19.483  21.936  0.00  0.00    -0.012 C 
BRANCH   2  28
ATOM     28  C   UNL     1      45.809  20.805  22.505  0.00  0.00    +0.016 C 
BRANCH  28  29
ATOM     29  C   UNL     1      44.850  21.936  22.127  0.00  0.00    +0.050 C 
BRANCH  29  30
ATOM     30  C   UNL     1      45.521  22.855  21.140  0.00  0.00    -0.112 C 
ATOM     34  C   UNL     1      46.551  23.575  21.512  0.00  0.00    -0.008 C 
BRANCH  30  31
ATOM     31  C   UNL     1      45.008  22.946  19.726  0.00  0.00    +0.010 C 
ATOM     32  C   UNL     1      43.478  22.943  19.738  0.00  0.00    +0.024 C 
ATOM     33  C   UNL     1      45.514  21.748  18.921  0.00  0.00    +0.022 C 
ENDBRANCH  30  31
ENDBRANCH  29  30
ENDBRANCH  28  29
ENDBRANCH   2  28
ENDBRANCH   3   2
BRANCH  15  16
ATOM     16  O   UNL     1      44.630  11.856  16.545  0.00  0.00    -0.476 OA
ATOM     17  H   UNL     1      44.762  11.596  15.624  0.00  0.00    +0.399 HD
ENDBRANCH  15  16
TORSDOF 6
ENDMDL
MODEL 8
REMARK VINA RESULT:      -5.3      3.778      8.581
REMARK  Name = ZINC95486173
REMARK  14 active torsions:
REMARK  status: ('A' for Active; 'I' for Inactive)
REMARK    1  A    between atoms: C1_1  and  C2_2
REMARK    2  A    between atoms: C2_2  and  C3_4
REMARK    3  A    between atoms: C2_2  and  C10_11
REMARK    4  A    between atoms: C3_4  and  C4_5
REMARK    5  A    between atoms: C4_5  and  C5_6
REMARK    6  A    between atoms: C5_6  and  C7_8
REMARK    7  A    between atoms: C7_8  and  C8_9
REMARK    8  A    between atoms: C7_8  and  C9_10
REMARK    9  A    between atoms: C13_15  and  C31_38
REMARK   10  A    between atoms: C14_16  and  C30_37
REMARK   11  A    between atoms: C22_27  and  C29_36
REMARK   12  A    between atoms: C24_29  and  O2_35
REMARK   13  A    between atoms: C26_32  and  C27_33
REMARK   14  A    between atoms: C26_32  and  C28_34
REMARK                            x       y       z     vdW  Elec       q    Type
REMARK                         _______ _______ _______ _____ _____    ______ ____
ROOT
ATOM      3  C   UNL     1      46.518  19.884  19.875  0.00  0.00    +0.002 C 
ATOM      4  C   UNL     1      45.913  19.375  18.536  0.00  0.00    +0.004 C 
ATOM      5  C   UNL     1      46.975  18.447  17.893  0.00  0.00    +0.013 C 
ATOM      6  C   UNL     1      48.007  18.238  19.008  0.00  0.00    -0.049 C 
ATOM      7  C   UNL     1      47.448  17.182  19.968  0.00  0.00    +0.021 C 
ATOM      8  C   UNL     1      49.407  17.871  18.568  0.00  0.00    +0.021 C 
ATOM      9  C   UNL     1      49.415  16.504  17.882  0.00  0.00    +0.010 C 
ATOM     10  C   UNL     1      50.834  16.113  17.486  0.00  0.00    +0.024 C 
ATOM     11  C   UNL     1      51.823  16.163  18.638  0.00  0.00    +0.001 C 
ATOM     12  C   UNL     1      51.746  17.466  19.411  0.00  0.00    +0.001 C 
ATOM     13  C   UNL     1      52.322  18.576  18.506  0.00  0.00    +0.039 C 
ATOM     14  C   UNL     1      52.587  17.448  20.659  0.00  0.00    +0.004 C 
ATOM     15  C   UNL     1      53.125  16.354  21.175  0.00  0.00    +0.002 C 
ATOM     18  C   UNL     1      52.924  15.042  20.553  0.00  0.00    +0.375 C 
ATOM     19  O   UNL     1      53.573  14.077  20.904  0.00  0.00    -0.447 OA
ATOM     20  C   UNL     1      51.863  14.901  19.474  0.00  0.00    -0.080 C 
ATOM     21  C   UNL     1      52.277  13.705  18.589  0.00  0.00    +0.053 C 
ATOM     22  C   UNL     1      50.527  14.564  20.136  0.00  0.00    +0.064 C 
ATOM     23  C   UNL     1      50.315  17.829  19.800  0.00  0.00    +0.012 C 
ATOM     24  C   UNL     1      50.290  19.150  20.565  0.00  0.00    +0.007 C 
ATOM     25  C   UNL     1      48.858  19.562  20.944  0.00  0.00    +0.021 C 
ATOM     26  C   UNL     1      48.022  19.629  19.687  0.00  0.00    -0.044 C 
ATOM     27  C   UNL     1      48.576  20.707  18.743  0.00  0.00    +0.024 C 
ENDROOT
BRANCH   3   2
ATOM      1  C   UNL     1      45.872  21.676  21.494  0.00  0.00    +0.012 C 
ATOM      2  C   UNL     1      46.251  21.384  20.041  0.00  0.00    -0.012 C 
BRANCH   2  28
ATOM     28  C   UNL     1      45.105  21.804  19.120  0.00  0.00    +0.016 C 
BRANCH  28  29
ATOM     29  C   UNL     1      43.872  22.141  19.960  0.00  0.00    +0.050 C 
BRANCH  29  30
ATOM     30  C   UNL     1      42.659  21.475  19.365  0.00  0.00    -0.112 C 
ATOM     34  C   UNL     1      41.718  22.201  18.814  0.00  0.00    -0.008 C 
BRANCH  30  31
ATOM     31  C   UNL     1      42.529  19.975  19.402  0.00  0.00    +0.010 C 
ATOM     32  C   UNL     1      41.088  19.579  19.072  0.00  0.00    +0.024 C 
ATOM     33  C   UNL     1      42.891  19.465  20.798  0.00  0.00    +0.022 C 
ENDBRANCH  30  31
ENDBRANCH  29  30
ENDBRANCH  28  29
ENDBRANCH   2  28
ENDBRANCH   3   2
BRANCH  15  16
ATOM     16  O   UNL     1      53.879  16.449  22.307  0.00  0.00    -0.476 OA
ATOM     17  H   UNL     1      53.445  16.921  23.030  0.00  0.00    +0.399 HD
ENDBRANCH  15  16
TORSDOF 6
ENDMDL
MODEL 9
REMARK VINA RESULT:      -5.3      4.087      8.954
REMARK  Name = ZINC95486173
REMARK  14 active torsions:
REMARK  status: ('A' for Active; 'I' for Inactive)
REMARK    1  A    between atoms: C1_1  and  C2_2
REMARK    2  A    between atoms: C2_2  and  C3_4
REMARK    3  A    between atoms: C2_2  and  C10_11
REMARK    4  A    between atoms: C3_4  and  C4_5
REMARK    5  A    between atoms: C4_5  and  C5_6
REMARK    6  A    between atoms: C5_6  and  C7_8
REMARK    7  A    between atoms: C7_8  and  C8_9
REMARK    8  A    between atoms: C7_8  and  C9_10
REMARK    9  A    between atoms: C13_15  and  C31_38
REMARK   10  A    between atoms: C14_16  and  C30_37
REMARK   11  A    between atoms: C22_27  and  C29_36
REMARK   12  A    between atoms: C24_29  and  O2_35
REMARK   13  A    between atoms: C26_32  and  C27_33
REMARK   14  A    between atoms: C26_32  and  C28_34
REMARK                            x       y       z     vdW  Elec       q    Type
REMARK                         _______ _______ _______ _____ _____    ______ ____
ROOT
ATOM      3  C   UNL     1      44.850  18.252  19.559  0.00  0.00    +0.002 C 
ATOM      4  C   UNL     1      45.214  19.371  18.543  0.00  0.00    +0.004 C 
ATOM      5  C   UNL     1      46.609  19.011  17.968  0.00  0.00    +0.013 C 
ATOM      6  C   UNL     1      46.852  17.578  18.456  0.00  0.00    -0.049 C 
ATOM      7  C   UNL     1      46.066  16.635  17.540  0.00  0.00    +0.021 C 
ATOM      8  C   UNL     1      48.295  17.139  18.561  0.00  0.00    +0.021 C 
ATOM      9  C   UNL     1      48.952  17.109  17.180  0.00  0.00    +0.010 C 
ATOM     10  C   UNL     1      50.390  16.617  17.282  0.00  0.00    +0.024 C 
ATOM     11  C   UNL     1      50.528  15.282  17.993  0.00  0.00    +0.001 C 
ATOM     12  C   UNL     1      49.781  15.248  19.312  0.00  0.00    +0.001 C 
ATOM     13  C   UNL     1      50.539  16.163  20.297  0.00  0.00    +0.039 C 
ATOM     14  C   UNL     1      49.758  13.875  19.928  0.00  0.00    +0.004 C 
ATOM     15  C   UNL     1      50.111  12.769  19.291  0.00  0.00    +0.002 C 
ATOM     18  C   UNL     1      50.552  12.806  17.894  0.00  0.00    +0.375 C 
ATOM     19  O   UNL     1      51.062  11.834  17.373  0.00  0.00    -0.447 OA
ATOM     20  C   UNL     1      50.333  14.079  17.093  0.00  0.00    -0.080 C 
ATOM     21  C   UNL     1      51.393  14.093  15.970  0.00  0.00    +0.053 C 
ATOM     22  C   UNL     1      48.951  14.021  16.441  0.00  0.00    +0.064 C 
ATOM     23  C   UNL     1      48.341  15.740  19.179  0.00  0.00    +0.012 C 
ATOM     24  C   UNL     1      47.636  15.696  20.532  0.00  0.00    +0.007 C 
ATOM     25  C   UNL     1      46.192  16.216  20.440  0.00  0.00    +0.021 C 
ATOM     26  C   UNL     1      46.214  17.614  19.866  0.00  0.00    -0.044 C 
ATOM     27  C   UNL     1      46.982  18.556  20.805  0.00  0.00    +0.024 C 
ENDROOT
BRANCH   3   2
ATOM      1  C   UNL     1      43.183  17.927  21.394  0.00  0.00    +0.012 C 
ATOM      2  C   UNL     1      44.253  18.865  20.831  0.00  0.00    -0.012 C 
BRANCH   2  28
ATOM     28  C   UNL     1      43.622  20.218  20.498  0.00  0.00    +0.016 C 
BRANCH  28  29
ATOM     29  C   UNL     1      42.183  20.008  20.025  0.00  0.00    +0.050 C 
BRANCH  29  30
ATOM     30  C   UNL     1      41.775  21.149  19.130  0.00  0.00    -0.112 C 
ATOM     34  C   UNL     1      42.386  22.304  19.225  0.00  0.00    -0.008 C 
BRANCH  30  31
ATOM     31  C   UNL     1      40.667  20.962  18.127  0.00  0.00    +0.010 C 
ATOM     32  C   UNL     1      39.356  21.493  18.711  0.00  0.00    +0.024 C 
ATOM     33  C   UNL     1      40.516  19.474  17.805  0.00  0.00    +0.022 C 
ENDBRANCH  30  31
ENDBRANCH  29  30
ENDBRANCH  28  29
ENDBRANCH   2  28
ENDBRANCH   3   2
BRANCH  15  16
ATOM     16  O   UNL     1      50.063  11.575  19.946  0.00  0.00    -0.476 OA
ATOM     17  H   UNL     1      49.400  11.539  20.649  0.00  0.00    +0.399 HD
ENDBRANCH  15  16
TORSDOF 6
ENDMDL
