MODEL 1
REMARK VINA RESULT:      -7.5      0.000      0.000
REMARK  Name = ZINC40431237
REMARK  8 active torsions:
REMARK  status: ('A' for Active; 'I' for Inactive)
REMARK    1  A    between atoms: C1_1  and  C2_2
REMARK    2  A    between atoms: C3_3  and  O3_33
REMARK    3  A    between atoms: C11_12  and  C28_32
REMARK    4  A    between atoms: C14_15  and  C27_31
REMARK    5  A    between atoms: C15_16  and  C26_30
REMARK    6  A    between atoms: C18_19  and  C25_29
REMARK    7  A    between atoms: C21_23  and  C24_27
REMARK    8  A    between atoms: C24_27  and  O2_28
REMARK                            x       y       z     vdW  Elec       q    Type
REMARK                         _______ _______ _______ _____ _____    ______ ____
ROOT
ATOM      1  C   UNL     1      42.745  17.396  22.124  0.00  0.00    +0.107 C 
ATOM      2  C   UNL     1      43.155  18.510  21.197  0.00  0.00    -0.069 C 
ATOM      3  C   UNL     1      42.232  19.022  20.338  0.00  0.00    +0.009 C 
ATOM      6  C   UNL     1      42.590  20.074  19.463  0.00  0.00    +0.380 C 
ATOM      7  C   UNL     1      43.880  20.632  19.529  0.00  0.00    -0.110 C 
ATOM      8  C   UNL     1      44.806  20.124  20.387  0.00  0.00    +0.025 C 
ATOM      9  C   UNL     1      46.159  20.786  20.462  0.00  0.00    +0.002 C 
ATOM     10  C   UNL     1      45.936  22.089  21.236  0.00  0.00    +0.069 C 
ATOM     11  C   UNL     1      46.627  21.135  19.052  0.00  0.00    +0.044 C 
ATOM     12  C   UNL     1      48.104  21.514  19.002  0.00  0.00    +0.026 C 
ATOM     13  C   UNL     1      48.978  20.406  19.598  0.00  0.00    -0.027 C 
ATOM     14  C   UNL     1      48.591  19.097  18.897  0.00  0.00    +0.025 C 
ATOM     15  C   UNL     1      48.637  20.272  21.089  0.00  0.00    -0.015 C 
ATOM     16  C   UNL     1      48.938  21.564  21.849  0.00  0.00    +0.046 C 
ATOM     17  C   UNL     1      49.487  19.152  21.687  0.00  0.00    +0.025 C 
ATOM     18  C   UNL     1      50.963  19.524  21.595  0.00  0.00    +0.019 C 
ATOM     19  C   UNL     1      51.404  19.801  20.158  0.00  0.00    -0.040 C 
ATOM     20  C   UNL     1      52.761  20.542  20.271  0.00  0.00    +0.013 C 
ATOM     21  C   UNL     1      51.662  18.486  19.433  0.00  0.00    +0.016 C 
ATOM     22  C   UNL     1      52.169  18.733  18.017  0.00  0.00    +0.018 C 
ATOM     23  C   UNL     1      51.181  19.584  17.226  0.00  0.00    -0.001 C 
ATOM     27  C   UNL     1      50.834  20.876  17.946  0.00  0.00    +0.018 C 
ATOM     28  C   UNL     1      50.450  20.710  19.409  0.00  0.00    +0.013 C 
ATOM     29  C   UNL     1      47.163  19.931  21.177  0.00  0.00    -0.000 C 
ATOM     30  C   UNL     1      46.796  18.861  21.894  0.00  0.00    -0.052 C 
ATOM     31  C   UNL     1      45.469  18.420  21.978  0.00  0.00    +0.153 C 
ATOM     32  O   UNL     1      41.779  20.504  18.655  0.00  0.00    -0.489 OA
ATOM     33  C   UNL     1      44.477  19.012  21.195  0.00  0.00    -0.107 C 
ENDROOT
BRANCH   3   4
ATOM      4  O   UNL     1      40.968  18.521  20.325  0.00  0.00    -0.465 OA
ATOM      5  H   UNL     1      40.916  17.580  20.544  0.00  0.00    +0.402 HD
ENDBRANCH   3   4
BRANCH  23  24
ATOM     24  C   UNL     1      51.818  19.933  15.869  0.00  0.00    +0.158 C 
BRANCH  24  25
ATOM     25  O   UNL     1      52.244  21.298  15.880  0.00  0.00    -0.573 OA
ATOM     26  H   UNL     1      52.257  21.713  15.006  0.00  0.00    +0.379 HD
ENDBRANCH  24  25
ENDBRANCH  23  24
TORSDOF 3
ENDMDL
MODEL 2
REMARK VINA RESULT:      -7.4      1.649      2.563
REMARK  Name = ZINC40431237
REMARK  8 active torsions:
REMARK  status: ('A' for Active; 'I' for Inactive)
REMARK    1  A    between atoms: C1_1  and  C2_2
REMARK    2  A    between atoms: C3_3  and  O3_33
REMARK    3  A    between atoms: C11_12  and  C28_32
REMARK    4  A    between atoms: C14_15  and  C27_31
REMARK    5  A    between atoms: C15_16  and  C26_30
REMARK    6  A    between atoms: C18_19  and  C25_29
REMARK    7  A    between atoms: C21_23  and  C24_27
REMARK    8  A    between atoms: C24_27  and  O2_28
REMARK                            x       y       z     vdW  Elec       q    Type
REMARK                         _______ _______ _______ _____ _____    ______ ____
ROOT
ATOM      1  C   UNL     1      40.930  19.650  18.563  0.00  0.00    +0.107 C 
ATOM      2  C   UNL     1      41.963  20.669  18.967  0.00  0.00    -0.069 C 
ATOM      3  C   UNL     1      41.696  21.989  18.766  0.00  0.00    +0.009 C 
ATOM      6  C   UNL     1      42.647  22.966  19.144  0.00  0.00    +0.380 C 
ATOM      7  C   UNL     1      43.836  22.575  19.787  0.00  0.00    -0.110 C 
ATOM      8  C   UNL     1      44.106  21.257  19.991  0.00  0.00    +0.025 C 
ATOM      9  C   UNL     1      45.367  20.886  20.730  0.00  0.00    +0.002 C 
ATOM     10  C   UNL     1      45.091  21.212  22.201  0.00  0.00    +0.069 C 
ATOM     11  C   UNL     1      46.513  21.770  20.245  0.00  0.00    +0.044 C 
ATOM     12  C   UNL     1      47.878  21.260  20.699  0.00  0.00    +0.026 C 
ATOM     13  C   UNL     1      48.098  19.809  20.261  0.00  0.00    -0.027 C 
ATOM     14  C   UNL     1      47.817  19.742  18.754  0.00  0.00    +0.025 C 
ATOM     15  C   UNL     1      47.068  18.927  20.983  0.00  0.00    -0.015 C 
ATOM     16  C   UNL     1      47.244  18.989  22.500  0.00  0.00    +0.046 C 
ATOM     17  C   UNL     1      47.265  17.479  20.534  0.00  0.00    +0.025 C 
ATOM     18  C   UNL     1      48.647  16.994  20.958  0.00  0.00    +0.019 C 
ATOM     19  C   UNL     1      49.767  17.870  20.395  0.00  0.00    -0.040 C 
ATOM     20  C   UNL     1      51.031  17.515  21.221  0.00  0.00    +0.013 C 
ATOM     21  C   UNL     1      50.046  17.486  18.947  0.00  0.00    +0.016 C 
ATOM     22  C   UNL     1      51.207  18.298  18.382  0.00  0.00    +0.018 C 
ATOM     23  C   UNL     1      50.926  19.793  18.485  0.00  0.00    -0.001 C 
ATOM     27  C   UNL     1      50.568  20.212  19.901  0.00  0.00    +0.018 C 
ATOM     28  C   UNL     1      49.509  19.353  20.574  0.00  0.00    +0.013 C 
ATOM     29  C   UNL     1      45.697  19.430  20.581  0.00  0.00    -0.000 C 
ATOM     30  C   UNL     1      44.809  18.552  20.095  0.00  0.00    -0.052 C 
ATOM     31  C   UNL     1      43.543  18.927  19.630  0.00  0.00    +0.153 C 
ATOM     32  O   UNL     1      42.433  24.149  18.920  0.00  0.00    -0.489 OA
ATOM     33  C   UNL     1      43.200  20.276  19.529  0.00  0.00    -0.107 C 
ENDROOT
BRANCH   3   4
ATOM      4  O   UNL     1      40.517  22.363  18.202  0.00  0.00    -0.465 OA
ATOM      5  H   UNL     1      40.441  22.140  17.264  0.00  0.00    +0.402 HD
ENDBRANCH   3   4
BRANCH  23  24
ATOM     24  C   UNL     1      52.191  20.556  18.051  0.00  0.00    +0.158 C 
BRANCH  24  25
ATOM     25  O   UNL     1      51.939  21.232  16.816  0.00  0.00    -0.573 OA
ATOM     26  H   UNL     1      51.464  20.697  16.165  0.00  0.00    +0.379 HD
ENDBRANCH  24  25
ENDBRANCH  23  24
TORSDOF 3
ENDMDL
MODEL 3
REMARK VINA RESULT:      -7.4      1.913      7.534
REMARK  Name = ZINC40431237
REMARK  8 active torsions:
REMARK  status: ('A' for Active; 'I' for Inactive)
REMARK    1  A    between atoms: C1_1  and  C2_2
REMARK    2  A    between atoms: C3_3  and  O3_33
REMARK    3  A    between atoms: C11_12  and  C28_32
REMARK    4  A    between atoms: C14_15  and  C27_31
REMARK    5  A    between atoms: C15_16  and  C26_30
REMARK    6  A    between atoms: C18_19  and  C25_29
REMARK    7  A    between atoms: C21_23  and  C24_27
REMARK    8  A    between atoms: C24_27  and  O2_28
REMARK                            x       y       z     vdW  Elec       q    Type
REMARK                         _______ _______ _______ _____ _____    ______ ____
ROOT
ATOM      1  C   UNL     1      52.519  19.853  15.953  0.00  0.00    +0.107 C 
ATOM      2  C   UNL     1      51.642  18.814  16.602  0.00  0.00    -0.069 C 
ATOM      3  C   UNL     1      51.716  17.527  16.164  0.00  0.00    +0.009 C 
ATOM      6  C   UNL     1      50.909  16.531  16.763  0.00  0.00    +0.380 C 
ATOM      7  C   UNL     1      50.082  16.860  17.853  0.00  0.00    -0.110 C 
ATOM      8  C   UNL     1      50.007  18.145  18.294  0.00  0.00    +0.025 C 
ATOM      9  C   UNL     1      49.148  18.444  19.498  0.00  0.00    +0.002 C 
ATOM     10  C   UNL     1      49.933  17.917  20.703  0.00  0.00    +0.069 C 
ATOM     11  C   UNL     1      47.842  17.660  19.391  0.00  0.00    +0.044 C 
ATOM     12  C   UNL     1      46.791  18.137  20.388  0.00  0.00    +0.026 C 
ATOM     13  C   UNL     1      46.529  19.639  20.239  0.00  0.00    -0.027 C 
ATOM     14  C   UNL     1      46.225  19.901  18.757  0.00  0.00    +0.025 C 
ATOM     15  C   UNL     1      47.816  20.391  20.606  0.00  0.00    -0.015 C 
ATOM     16  C   UNL     1      48.221  20.130  22.057  0.00  0.00    +0.046 C 
ATOM     17  C   UNL     1      47.571  21.890  20.437  0.00  0.00    +0.025 C 
ATOM     18  C   UNL     1      46.491  22.347  21.410  0.00  0.00    +0.019 C 
ATOM     19  C   UNL     1      45.180  21.581  21.224  0.00  0.00    -0.040 C 
ATOM     20  C   UNL     1      44.350  21.852  22.505  0.00  0.00    +0.013 C 
ATOM     21  C   UNL     1      44.405  22.162  20.048  0.00  0.00    +0.016 C 
ATOM     22  C   UNL     1      43.060  21.462  19.881  0.00  0.00    +0.018 C 
ATOM     23  C   UNL     1      43.249  19.960  19.696  0.00  0.00    -0.001 C 
ATOM     27  C   UNL     1      44.082  19.346  20.808  0.00  0.00    +0.018 C 
ATOM     28  C   UNL     1      45.378  20.082  21.118  0.00  0.00    +0.013 C 
ATOM     29  C   UNL     1      48.894  19.914  19.655  0.00  0.00    -0.000 C 
ATOM     30  C   UNL     1      49.595  20.828  18.971  0.00  0.00    -0.052 C 
ATOM     31  C   UNL     1      50.561  20.488  18.016  0.00  0.00    +0.153 C 
ATOM     32  O   UNL     1      50.935  15.384  16.340  0.00  0.00    -0.489 OA
ATOM     33  C   UNL     1      50.741  19.157  17.637  0.00  0.00    -0.107 C 
ENDROOT
BRANCH   3   4
ATOM      4  O   UNL     1      52.565  17.204  15.152  0.00  0.00    -0.465 OA
ATOM      5  H   UNL     1      53.147  17.927  14.882  0.00  0.00    +0.402 HD
ENDBRANCH   3   4
BRANCH  23  24
ATOM     24  C   UNL     1      41.862  19.293  19.695  0.00  0.00    +0.158 C 
BRANCH  24  25
ATOM     25  O   UNL     1      41.012  19.960  20.631  0.00  0.00    -0.573 OA
ATOM     26  H   UNL     1      41.337  19.938  21.542  0.00  0.00    +0.379 HD
ENDBRANCH  24  25
ENDBRANCH  23  24
TORSDOF 3
ENDMDL
MODEL 4
REMARK VINA RESULT:      -6.9      4.833      7.351
REMARK  Name = ZINC40431237
REMARK  8 active torsions:
REMARK  status: ('A' for Active; 'I' for Inactive)
REMARK    1  A    between atoms: C1_1  and  C2_2
REMARK    2  A    between atoms: C3_3  and  O3_33
REMARK    3  A    between atoms: C11_12  and  C28_32
REMARK    4  A    between atoms: C14_15  and  C27_31
REMARK    5  A    between atoms: C15_16  and  C26_30
REMARK    6  A    between atoms: C18_19  and  C25_29
REMARK    7  A    between atoms: C21_23  and  C24_27
REMARK    8  A    between atoms: C24_27  and  O2_28
REMARK                            x       y       z     vdW  Elec       q    Type
REMARK                         _______ _______ _______ _____ _____    ______ ____
ROOT
ATOM      1  C   UNL     1      49.996  12.900  14.867  0.00  0.00    +0.107 C 
ATOM      2  C   UNL     1      48.752  12.895  15.717  0.00  0.00    -0.069 C 
ATOM      3  C   UNL     1      47.810  11.938  15.495  0.00  0.00    +0.009 C 
ATOM      6  C   UNL     1      46.637  11.907  16.285  0.00  0.00    +0.380 C 
ATOM      7  C   UNL     1      46.477  12.824  17.340  0.00  0.00    -0.110 C 
ATOM      8  C   UNL     1      47.418  13.782  17.566  0.00  0.00    +0.025 C 
ATOM      9  C   UNL     1      47.233  14.711  18.740  0.00  0.00    +0.002 C 
ATOM     10  C   UNL     1      47.567  13.877  19.980  0.00  0.00    +0.069 C 
ATOM     11  C   UNL     1      45.768  15.133  18.821  0.00  0.00    +0.044 C 
ATOM     12  C   UNL     1      45.549  16.306  19.771  0.00  0.00    +0.026 C 
ATOM     13  C   UNL     1      46.430  17.499  19.386  0.00  0.00    -0.027 C 
ATOM     14  C   UNL     1      46.188  17.779  17.897  0.00  0.00    +0.025 C 
ATOM     15  C   UNL     1      47.899  17.091  19.567  0.00  0.00    -0.015 C 
ATOM     16  C   UNL     1      48.205  16.735  21.022  0.00  0.00    +0.046 C 
ATOM     17  C   UNL     1      48.787  18.268  19.163  0.00  0.00    +0.025 C 
ATOM     18  C   UNL     1      48.530  19.448  20.094  0.00  0.00    +0.019 C 
ATOM     19  C   UNL     1      47.063  19.878  20.094  0.00  0.00    -0.040 C 
ATOM     20  C   UNL     1      46.889  20.774  21.348  0.00  0.00    +0.013 C 
ATOM     21  C   UNL     1      46.778  20.744  18.873  0.00  0.00    +0.016 C 
ATOM     22  C   UNL     1      45.338  21.246  18.883  0.00  0.00    +0.018 C 
ATOM     23  C   UNL     1      44.357  20.080  18.942  0.00  0.00    -0.001 C 
ATOM     27  C   UNL     1      44.648  19.144  20.103  0.00  0.00    +0.018 C 
ATOM     28  C   UNL     1      46.102  18.714  20.230  0.00  0.00    +0.013 C 
ATOM     29  C   UNL     1      48.142  15.901  18.662  0.00  0.00    -0.000 C 
ATOM     30  C   UNL     1      49.172  15.948  17.806  0.00  0.00    -0.052 C 
ATOM     31  C   UNL     1      49.438  14.932  16.879  0.00  0.00    +0.153 C 
ATOM     32  O   UNL     1      45.765  11.081  16.057  0.00  0.00    -0.489 OA
ATOM     33  C   UNL     1      48.545  13.872  16.719  0.00  0.00    -0.107 C 
ENDROOT
BRANCH   3   4
ATOM      4  O   UNL     1      48.000  11.015  14.515  0.00  0.00    -0.465 OA
ATOM      5  H   UNL     1      48.030  11.389  13.624  0.00  0.00    +0.402 HD
ENDBRANCH   3   4
BRANCH  23  24
ATOM     24  C   UNL     1      42.936  20.648  19.112  0.00  0.00    +0.158 C 
BRANCH  24  25
ATOM     25  O   UNL     1      42.993  21.846  19.890  0.00  0.00    -0.573 OA
ATOM     26  H   UNL     1      42.544  22.601  19.484  0.00  0.00    +0.379 HD
ENDBRANCH  24  25
ENDBRANCH  23  24
TORSDOF 3
ENDMDL
MODEL 5
REMARK VINA RESULT:      -6.9      3.431      7.079
REMARK  Name = ZINC40431237
REMARK  8 active torsions:
REMARK  status: ('A' for Active; 'I' for Inactive)
REMARK    1  A    between atoms: C1_1  and  C2_2
REMARK    2  A    between atoms: C3_3  and  O3_33
REMARK    3  A    between atoms: C11_12  and  C28_32
REMARK    4  A    between atoms: C14_15  and  C27_31
REMARK    5  A    between atoms: C15_16  and  C26_30
REMARK    6  A    between atoms: C18_19  and  C25_29
REMARK    7  A    between atoms: C21_23  and  C24_27
REMARK    8  A    between atoms: C24_27  and  O2_28
REMARK                            x       y       z     vdW  Elec       q    Type
REMARK                         _______ _______ _______ _____ _____    ______ ____
ROOT
ATOM      1  C   UNL     1      51.162  15.641  16.773  0.00  0.00    +0.107 C 
ATOM      2  C   UNL     1      49.742  15.312  17.155  0.00  0.00    -0.069 C 
ATOM      3  C   UNL     1      49.131  14.253  16.557  0.00  0.00    +0.009 C 
ATOM      6  C   UNL     1      47.801  13.918  16.904  0.00  0.00    +0.380 C 
ATOM      7  C   UNL     1      47.136  14.640  17.913  0.00  0.00    -0.110 C 
ATOM      8  C   UNL     1      47.744  15.698  18.514  0.00  0.00    +0.025 C 
ATOM      9  C   UNL     1      47.016  16.411  19.626  0.00  0.00    +0.002 C 
ATOM     10  C   UNL     1      47.106  15.479  20.838  0.00  0.00    +0.069 C 
ATOM     11  C   UNL     1      45.547  16.569  19.245  0.00  0.00    +0.044 C 
ATOM     12  C   UNL     1      44.808  17.546  20.155  0.00  0.00    +0.026 C 
ATOM     13  C   UNL     1      45.505  18.910  20.181  0.00  0.00    -0.027 C 
ATOM     14  C   UNL     1      45.692  19.352  18.723  0.00  0.00    +0.025 C 
ATOM     15  C   UNL     1      46.894  18.729  20.812  0.00  0.00    -0.015 C 
ATOM     16  C   UNL     1      46.792  18.229  22.252  0.00  0.00    +0.046 C 
ATOM     17  C   UNL     1      47.606  20.082  20.821  0.00  0.00    +0.025 C 
ATOM     18  C   UNL     1      46.837  21.061  21.700  0.00  0.00    +0.019 C 
ATOM     19  C   UNL     1      45.389  21.239  21.243  0.00  0.00    -0.040 C 
ATOM     20  C   UNL     1      44.653  21.909  22.432  0.00  0.00    +0.013 C 
ATOM     21  C   UNL     1      45.333  22.208  20.068  0.00  0.00    +0.016 C 
ATOM     22  C   UNL     1      43.892  22.457  19.634  0.00  0.00    +0.018 C 
ATOM     23  C   UNL     1      43.200  21.148  19.270  0.00  0.00    -0.001 C 
ATOM     27  C   UNL     1      43.294  20.121  20.385  0.00  0.00    +0.018 C 
ATOM     28  C   UNL     1      44.690  19.924  20.958  0.00  0.00    +0.013 C 
ATOM     29  C   UNL     1      47.644  17.734  19.951  0.00  0.00    -0.000 C 
ATOM     30  C   UNL     1      48.858  18.070  19.495  0.00  0.00    -0.052 C 
ATOM     31  C   UNL     1      49.601  17.252  18.634  0.00  0.00    +0.153 C 
ATOM     32  O   UNL     1      47.231  12.999  16.333  0.00  0.00    -0.489 OA
ATOM     33  C   UNL     1      49.038  16.091  18.102  0.00  0.00    -0.107 C 
ENDROOT
BRANCH   3   4
ATOM      4  O   UNL     1      49.801  13.520  15.628  0.00  0.00    -0.465 OA
ATOM      5  H   UNL     1      49.761  13.887  14.734  0.00  0.00    +0.402 HD
ENDBRANCH   3   4
BRANCH  23  24
ATOM     24  C   UNL     1      41.714  21.445  18.999  0.00  0.00    +0.158 C 
BRANCH  24  25
ATOM     25  O   UNL     1      41.588  22.735  18.394  0.00  0.00    -0.573 OA
ATOM     26  H   UNL     1      41.851  22.760  17.464  0.00  0.00    +0.379 HD
ENDBRANCH  24  25
ENDBRANCH  23  24
TORSDOF 3
ENDMDL
MODEL 6
REMARK VINA RESULT:      -6.8      2.827      4.270
REMARK  Name = ZINC40431237
REMARK  8 active torsions:
REMARK  status: ('A' for Active; 'I' for Inactive)
REMARK    1  A    between atoms: C1_1  and  C2_2
REMARK    2  A    between atoms: C3_3  and  O3_33
REMARK    3  A    between atoms: C11_12  and  C28_32
REMARK    4  A    between atoms: C14_15  and  C27_31
REMARK    5  A    between atoms: C15_16  and  C26_30
REMARK    6  A    between atoms: C18_19  and  C25_29
REMARK    7  A    between atoms: C21_23  and  C24_27
REMARK    8  A    between atoms: C24_27  and  O2_28
REMARK                            x       y       z     vdW  Elec       q    Type
REMARK                         _______ _______ _______ _____ _____    ______ ____
ROOT
ATOM      1  C   UNL     1      41.253  21.586  18.921  0.00  0.00    +0.107 C 
ATOM      2  C   UNL     1      42.698  21.819  19.280  0.00  0.00    -0.069 C 
ATOM      3  C   UNL     1      43.186  23.089  19.245  0.00  0.00    +0.009 C 
ATOM      6  C   UNL     1      44.537  23.335  19.585  0.00  0.00    +0.380 C 
ATOM      7  C   UNL     1      45.354  22.276  20.022  0.00  0.00    -0.110 C 
ATOM      8  C   UNL     1      44.870  21.005  20.059  0.00  0.00    +0.025 C 
ATOM      9  C   UNL     1      45.763  19.908  20.583  0.00  0.00    +0.002 C 
ATOM     10  C   UNL     1      45.799  20.099  22.103  0.00  0.00    +0.069 C 
ATOM     11  C   UNL     1      47.174  20.105  20.037  0.00  0.00    +0.044 C 
ATOM     12  C   UNL     1      48.062  18.883  20.252  0.00  0.00    +0.026 C 
ATOM     13  C   UNL     1      47.424  17.626  19.651  0.00  0.00    -0.027 C 
ATOM     14  C   UNL     1      47.063  17.953  18.195  0.00  0.00    +0.025 C 
ATOM     15  C   UNL     1      46.125  17.332  20.414  0.00  0.00    -0.015 C 
ATOM     16  C   UNL     1      46.396  17.056  21.893  0.00  0.00    +0.046 C 
ATOM     17  C   UNL     1      45.470  16.093  19.805  0.00  0.00    +0.025 C 
ATOM     18  C   UNL     1      46.383  14.886  19.991  0.00  0.00    +0.019 C 
ATOM     19  C   UNL     1      47.764  15.103  19.371  0.00  0.00    -0.040 C 
ATOM     20  C   UNL     1      48.673  14.005  19.981  0.00  0.00    +0.013 C 
ATOM     21  C   UNL     1      47.700  14.858  17.868  0.00  0.00    +0.016 C 
ATOM     22  C   UNL     1      49.080  14.999  17.233  0.00  0.00    +0.018 C 
ATOM     23  C   UNL     1      49.670  16.376  17.518  0.00  0.00    -0.001 C 
ATOM     27  C   UNL     1      49.686  16.697  19.003  0.00  0.00    +0.018 C 
ATOM     28  C   UNL     1      48.371  16.445  19.725  0.00  0.00    +0.013 C 
ATOM     29  C   UNL     1      45.232  18.545  20.251  0.00  0.00    -0.000 C 
ATOM     30  C   UNL     1      43.981  18.364  19.806  0.00  0.00    -0.052 C 
ATOM     31  C   UNL     1      43.103  19.424  19.553  0.00  0.00    +0.153 C 
ATOM     32  O   UNL     1      44.993  24.467  19.508  0.00  0.00    -0.489 OA
ATOM     33  C   UNL     1      43.549  20.745  19.631  0.00  0.00    -0.107 C 
ENDROOT
BRANCH   3   4
ATOM      4  O   UNL     1      42.373  24.117  18.884  0.00  0.00    -0.465 OA
ATOM      5  H   UNL     1      41.752  23.897  18.176  0.00  0.00    +0.402 HD
ENDBRANCH   3   4
BRANCH  23  24
ATOM     24  C   UNL     1      51.117  16.402  16.994  0.00  0.00    +0.158 C 
BRANCH  24  25
ATOM     25  O   UNL     1      51.476  17.743  16.650  0.00  0.00    -0.573 OA
ATOM     26  H   UNL     1      50.929  18.417  17.076  0.00  0.00    +0.379 HD
ENDBRANCH  24  25
ENDBRANCH  23  24
TORSDOF 3
ENDMDL
MODEL 7
REMARK VINA RESULT:      -6.4      5.111      6.139
REMARK  Name = ZINC40431237
REMARK  8 active torsions:
REMARK  status: ('A' for Active; 'I' for Inactive)
REMARK    1  A    between atoms: C1_1  and  C2_2
REMARK    2  A    between atoms: C3_3  and  O3_33
REMARK    3  A    between atoms: C11_12  and  C28_32
REMARK    4  A    between atoms: C14_15  and  C27_31
REMARK    5  A    between atoms: C15_16  and  C26_30
REMARK    6  A    between atoms: C18_19  and  C25_29
REMARK    7  A    between atoms: C21_23  and  C24_27
REMARK    8  A    between atoms: C24_27  and  O2_28
REMARK                            x       y       z     vdW  Elec       q    Type
REMARK                         _______ _______ _______ _____ _____    ______ ____
ROOT
ATOM      1  C   UNL     1      42.868  18.856  20.386  0.00  0.00    +0.107 C 
ATOM      2  C   UNL     1      44.230  19.031  19.768  0.00  0.00    -0.069 C 
ATOM      3  C   UNL     1      44.580  20.255  19.287  0.00  0.00    +0.009 C 
ATOM      6  C   UNL     1      45.857  20.447  18.709  0.00  0.00    +0.380 C 
ATOM      7  C   UNL     1      46.786  19.390  18.693  0.00  0.00    -0.110 C 
ATOM      8  C   UNL     1      46.440  18.165  19.174  0.00  0.00    +0.025 C 
ATOM      9  C   UNL     1      47.483  17.075  19.185  0.00  0.00    +0.002 C 
ATOM     10  C   UNL     1      48.431  17.426  20.335  0.00  0.00    +0.069 C 
ATOM     11  C   UNL     1      48.271  17.120  17.878  0.00  0.00    +0.044 C 
ATOM     12  C   UNL     1      49.123  15.872  17.665  0.00  0.00    +0.026 C 
ATOM     13  C   UNL     1      48.268  14.603  17.733  0.00  0.00    -0.027 C 
ATOM     14  C   UNL     1      47.094  14.794  16.763  0.00  0.00    +0.025 C 
ATOM     15  C   UNL     1      47.702  14.478  19.156  0.00  0.00    -0.015 C 
ATOM     16  C   UNL     1      48.819  14.345  20.191  0.00  0.00    +0.046 C 
ATOM     17  C   UNL     1      46.829  13.226  19.226  0.00  0.00    +0.025 C 
ATOM     18  C   UNL     1      47.683  11.989  18.972  0.00  0.00    +0.019 C 
ATOM     19  C   UNL     1      48.402  12.047  17.624  0.00  0.00    -0.040 C 
ATOM     20  C   UNL     1      49.510  10.964  17.693  0.00  0.00    +0.013 C 
ATOM     21  C   UNL     1      47.443  11.647  16.509  0.00  0.00    +0.016 C 
ATOM     22  C   UNL     1      48.153  11.628  15.159  0.00  0.00    +0.018 C 
ATOM     23  C   UNL     1      48.776  12.987  14.855  0.00  0.00    -0.001 C 
ATOM     27  C   UNL     1      49.685  13.464  15.975  0.00  0.00    +0.018 C 
ATOM     28  C   UNL     1      49.081  13.377  17.369  0.00  0.00    +0.013 C 
ATOM     29  C   UNL     1      46.878  15.722  19.414  0.00  0.00    -0.000 C 
ATOM     30  C   UNL     1      45.616  15.576  19.840  0.00  0.00    -0.052 C 
ATOM     31  C   UNL     1      44.750  16.658  20.038  0.00  0.00    +0.153 C 
ATOM     32  O   UNL     1      46.158  21.532  18.231  0.00  0.00    -0.489 OA
ATOM     33  C   UNL     1      45.134  17.947  19.665  0.00  0.00    -0.107 C 
ENDROOT
BRANCH   3   4
ATOM      4  O   UNL     1      43.701  21.290  19.364  0.00  0.00    -0.465 OA
ATOM      5  H   UNL     1      42.794  21.053  19.126  0.00  0.00    +0.402 HD
ENDBRANCH   3   4
BRANCH  23  24
ATOM     24  C   UNL     1      49.609  12.861  13.566  0.00  0.00    +0.158 C 
BRANCH  24  25
ATOM     25  O   UNL     1      48.796  13.199  12.439  0.00  0.00    -0.573 OA
ATOM     26  H   UNL     1      48.028  13.745  12.658  0.00  0.00    +0.379 HD
ENDBRANCH  24  25
ENDBRANCH  23  24
TORSDOF 3
ENDMDL
MODEL 8
REMARK VINA RESULT:      -6.2      3.777      4.718
REMARK  Name = ZINC40431237
REMARK  8 active torsions:
REMARK  status: ('A' for Active; 'I' for Inactive)
REMARK    1  A    between atoms: C1_1  and  C2_2
REMARK    2  A    between atoms: C3_3  and  O3_33
REMARK    3  A    between atoms: C11_12  and  C28_32
REMARK    4  A    between atoms: C14_15  and  C27_31
REMARK    5  A    between atoms: C15_16  and  C26_30
REMARK    6  A    between atoms: C18_19  and  C25_29
REMARK    7  A    between atoms: C21_23  and  C24_27
REMARK    8  A    between atoms: C24_27  and  O2_28
REMARK                            x       y       z     vdW  Elec       q    Type
REMARK                         _______ _______ _______ _____ _____    ______ ____
ROOT
ATOM      1  C   UNL     1      40.603  18.759  21.919  0.00  0.00    +0.107 C 
ATOM      2  C   UNL     1      41.648  19.158  20.911  0.00  0.00    -0.069 C 
ATOM      3  C   UNL     1      41.336  20.101  19.979  0.00  0.00    +0.009 C 
ATOM      6  C   UNL     1      42.303  20.499  19.027  0.00  0.00    +0.380 C 
ATOM      7  C   UNL     1      43.605  19.968  19.086  0.00  0.00    -0.110 C 
ATOM      8  C   UNL     1      43.922  19.027  20.016  0.00  0.00    +0.025 C 
ATOM      9  C   UNL     1      45.342  18.524  20.077  0.00  0.00    +0.002 C 
ATOM     10  C   UNL     1      46.150  19.653  20.725  0.00  0.00    +0.069 C 
ATOM     11  C   UNL     1      45.862  18.311  18.658  0.00  0.00    +0.044 C 
ATOM     12  C   UNL     1      47.161  17.512  18.624  0.00  0.00    +0.026 C 
ATOM     13  C   UNL     1      47.002  16.169  19.344  0.00  0.00    -0.027 C 
ATOM     14  C   UNL     1      45.767  15.479  18.749  0.00  0.00    +0.025 C 
ATOM     15  C   UNL     1      46.729  16.449  20.829  0.00  0.00    -0.015 C 
ATOM     16  C   UNL     1      47.894  17.193  21.481  0.00  0.00    +0.046 C 
ATOM     17  C   UNL     1      46.545  15.115  21.552  0.00  0.00    +0.025 C 
ATOM     18  C   UNL     1      47.837  14.309  21.477  0.00  0.00    +0.019 C 
ATOM     19  C   UNL     1      48.285  14.062  20.036  0.00  0.00    -0.040 C 
ATOM     20  C   UNL     1      49.766  13.614  20.128  0.00  0.00    +0.013 C 
ATOM     21  C   UNL     1      47.495  12.904  19.439  0.00  0.00    +0.016 C 
ATOM     22  C   UNL     1      47.969  12.591  18.024  0.00  0.00    +0.018 C 
ATOM     23  C   UNL     1      47.856  13.820  17.129  0.00  0.00    -0.001 C 
ATOM     27  C   UNL     1      48.567  15.026  17.720  0.00  0.00    +0.018 C 
ATOM     28  C   UNL     1      48.240  15.311  19.178  0.00  0.00    +0.013 C 
ATOM     29  C   UNL     1      45.460  17.274  20.898  0.00  0.00    -0.000 C 
ATOM     30  C   UNL     1      44.467  16.857  21.694  0.00  0.00    -0.052 C 
ATOM     31  C   UNL     1      43.230  17.507  21.773  0.00  0.00    +0.153 C 
ATOM     32  O   UNL     1      42.011  21.308  18.158  0.00  0.00    -0.489 OA
ATOM     33  C   UNL     1      42.930  18.561  20.908  0.00  0.00    -0.107 C 
ENDROOT
BRANCH   3   4
ATOM      4  O   UNL     1      40.095  20.656  19.968  0.00  0.00    -0.465 OA
ATOM      5  H   UNL     1      39.519  20.318  19.269  0.00  0.00    +0.402 HD
ENDBRANCH   3   4
BRANCH  23  24
ATOM     24  C   UNL     1      48.495  13.490  15.768  0.00  0.00    +0.158 C 
BRANCH  24  25
ATOM     25  O   UNL     1      47.481  13.461  14.760  0.00  0.00    -0.573 OA
ATOM     26  H   UNL     1      47.822  13.340  13.863  0.00  0.00    +0.379 HD
ENDBRANCH  24  25
ENDBRANCH  23  24
TORSDOF 3
ENDMDL
MODEL 9
REMARK VINA RESULT:      -6.0      3.825      7.702
REMARK  Name = ZINC40431237
REMARK  8 active torsions:
REMARK  status: ('A' for Active; 'I' for Inactive)
REMARK    1  A    between atoms: C1_1  and  C2_2
REMARK    2  A    between atoms: C3_3  and  O3_33
REMARK    3  A    between atoms: C11_12  and  C28_32
REMARK    4  A    between atoms: C14_15  and  C27_31
REMARK    5  A    between atoms: C15_16  and  C26_30
REMARK    6  A    between atoms: C18_19  and  C25_29
REMARK    7  A    between atoms: C21_23  and  C24_27
REMARK    8  A    between atoms: C24_27  and  O2_28
REMARK                            x       y       z     vdW  Elec       q    Type
REMARK                         _______ _______ _______ _____ _____    ______ ____
ROOT
ATOM      1  C   UNL     1      50.068  13.969  16.372  0.00  0.00    +0.107 C 
ATOM      2  C   UNL     1      49.568  14.077  17.789  0.00  0.00    -0.069 C 
ATOM      3  C   UNL     1      49.645  12.984  18.597  0.00  0.00    +0.009 C 
ATOM      6  C   UNL     1      49.189  13.062  19.934  0.00  0.00    +0.380 C 
ATOM      7  C   UNL     1      48.719  14.286  20.444  0.00  0.00    -0.110 C 
ATOM      8  C   UNL     1      48.642  15.381  19.641  0.00  0.00    +0.025 C 
ATOM      9  C   UNL     1      48.181  16.686  20.242  0.00  0.00    +0.002 C 
ATOM     10  C   UNL     1      49.363  17.193  21.074  0.00  0.00    +0.069 C 
ATOM     11  C   UNL     1      47.008  16.420  21.181  0.00  0.00    +0.044 C 
ATOM     12  C   UNL     1      46.280  17.699  21.585  0.00  0.00    +0.026 C 
ATOM     13  C   UNL     1      45.815  18.481  20.353  0.00  0.00    -0.027 C 
ATOM     14  C   UNL     1      45.028  17.506  19.467  0.00  0.00    +0.025 C 
ATOM     15  C   UNL     1      47.058  18.942  19.577  0.00  0.00    -0.015 C 
ATOM     16  C   UNL     1      47.930  19.873  20.420  0.00  0.00    +0.046 C 
ATOM     17  C   UNL     1      46.603  19.704  18.333  0.00  0.00    +0.025 C 
ATOM     18  C   UNL     1      45.843  20.958  18.748  0.00  0.00    +0.019 C 
ATOM     19  C   UNL     1      44.637  20.640  19.634  0.00  0.00    -0.040 C 
ATOM     20  C   UNL     1      44.232  21.985  20.290  0.00  0.00    +0.013 C 
ATOM     21  C   UNL     1      43.468  20.184  18.770  0.00  0.00    +0.016 C 
ATOM     22  C   UNL     1      42.229  19.925  19.621  0.00  0.00    +0.018 C 
ATOM     23  C   UNL     1      42.519  18.890  20.702  0.00  0.00    -0.001 C 
ATOM     27  C   UNL     1      43.726  19.264  21.545  0.00  0.00    +0.018 C 
ATOM     28  C   UNL     1      44.960  19.668  20.751  0.00  0.00    +0.013 C 
ATOM     29  C   UNL     1      47.825  17.694  19.190  0.00  0.00    -0.000 C 
ATOM     30  C   UNL     1      48.163  17.523  17.905  0.00  0.00    -0.052 C 
ATOM     31  C   UNL     1      48.808  16.373  17.434  0.00  0.00    +0.153 C 
ATOM     32  O   UNL     1      49.210  12.070  20.648  0.00  0.00    -0.489 OA
ATOM     33  C   UNL     1      49.009  15.280  18.280  0.00  0.00    -0.107 C 
ENDROOT
BRANCH   3   4
ATOM      4  O   UNL     1      50.159  11.821  18.115  0.00  0.00    -0.465 OA
ATOM      5  H   UNL     1      50.677  11.323  18.763  0.00  0.00    +0.402 HD
ENDBRANCH   3   4
BRANCH  23  24
ATOM     24  C   UNL     1      41.289  18.791  21.622  0.00  0.00    +0.158 C 
BRANCH  24  25
ATOM     25  O   UNL     1      40.379  19.852  21.317  0.00  0.00    -0.573 OA
ATOM     26  H   UNL     1      40.417  20.592  21.938  0.00  0.00    +0.379 HD
ENDBRANCH  24  25
ENDBRANCH  23  24
TORSDOF 3
ENDMDL
