MODEL 1
REMARK VINA RESULT:      -5.9      0.000      0.000
REMARK  Name = ZINC95485974
REMARK  17 active torsions:
REMARK  status: ('A' for Active; 'I' for Inactive)
REMARK    1  A    between atoms: C1_1  and  C2_2
REMARK    2  A    between atoms: C2_2  and  C27_34
REMARK    3  A    between atoms: C3_3  and  C4_4
REMARK    4  A    between atoms: C4_4  and  C5_5
REMARK    5  A    between atoms: C5_5  and  C6_6
REMARK    6  A    between atoms: C7_7  and  O7_33
REMARK    7  A    between atoms: C8_8  and  C21_27
REMARK    8  A    between atoms: C11_11  and  O1_12
REMARK    9  A    between atoms: C15_17  and  O6_25
REMARK   10  A    between atoms: C16_18  and  O5_23
REMARK   11  A    between atoms: C17_19  and  O4_22
REMARK   12  A    between atoms: O5_23  and  C19_24
REMARK   13  A    between atoms: O6_25  and  C20_26
REMARK   14  A    between atoms: C21_27  and  C22_28
REMARK   15  A    between atoms: C22_28  and  C23_29
REMARK   16  A    between atoms: C24_30  and  C25_31
REMARK   17  A    between atoms: C24_30  and  C26_32
REMARK                            x       y       z     vdW  Elec       q    Type
REMARK                         _______ _______ _______ _____ _____    ______ ____
ROOT
ATOM      7  C   UNL     1      47.022  19.863  18.934  0.00  0.00    -0.165 A 
ATOM      8  C   UNL     1      48.276  19.941  19.533  0.00  0.00    +0.195 A 
ATOM     11  C   UNL     1      49.219  18.946  19.334  0.00  0.00    -0.140 A 
ATOM     18  C   UNL     1      48.922  17.852  18.532  0.00  0.00    +0.189 A 
ATOM     19  C   UNL     1      47.651  17.769  17.936  0.00  0.00    -0.264 A 
ATOM     20  C   UNL     1      47.341  16.590  17.107  0.00  0.00    +0.445 A 
ATOM     21  C   UNL     1      48.289  15.461  17.206  0.00  0.00    -0.175 A 
ATOM     22  C   UNL     1      47.968  14.207  16.685  0.00  0.00    +0.037 A 
ATOM     23  C   UNL     1      48.872  13.170  16.796  0.00  0.00    +0.102 A 
ATOM     26  C   UNL     1      50.098  13.377  17.428  0.00  0.00    +0.104 A 
ATOM     29  C   UNL     1      50.423  14.621  17.947  0.00  0.00    +0.106 A 
ATOM     32  C   UNL     1      49.523  15.679  17.840  0.00  0.00    +0.110 A 
ATOM     33  O   UNL     1      46.361  16.549  16.384  0.00  0.00    -0.430 OA
ATOM     34  O   UNL     1      49.848  16.892  18.334  0.00  0.00    -0.208 OA
ATOM     35  C   UNL     1      46.703  18.779  18.138  0.00  0.00    +0.216 A 
ENDROOT
BRANCH   8   9
ATOM      9  O   UNL     1      48.579  21.005  20.320  0.00  0.00    -0.479 OA
ATOM     10  H   UNL     1      48.658  20.789  21.259  0.00  0.00    +0.398 HD
ENDBRANCH   8   9
BRANCH  23  24
ATOM     24  O   UNL     1      48.566  11.944  16.291  0.00  0.00    -0.298 OA
ATOM     25  C   UNL     1      48.301  11.868  14.888  0.00  0.00    +0.249 C 
ENDBRANCH  23  24
BRANCH  26  27
ATOM     27  O   UNL     1      50.983  12.350  17.536  0.00  0.00    -0.309 OA
ATOM     28  C   UNL     1      51.900  12.167  16.455  0.00  0.00    +0.235 C 
ENDBRANCH  26  27
BRANCH  29  30
ATOM     30  O   UNL     1      51.623  14.810  18.561  0.00  0.00    -0.462 OA
ATOM     31  H   UNL     1      52.129  13.996  18.694  0.00  0.00    +0.392 HD
ENDBRANCH  29  30
BRANCH  35  36
ATOM     36  O   UNL     1      45.482  18.697  17.553  0.00  0.00    -0.472 OA
ATOM     37  H   UNL     1      44.816  19.274  17.950  0.00  0.00    +0.402 HD
ENDBRANCH  35  36
BRANCH   7   6
ATOM      6  C   UNL     1      46.011  20.958  19.159  0.00  0.00    +0.098 C 
BRANCH   6   5
ATOM      5  C   UNL     1      45.200  20.652  20.419  0.00  0.00    +0.054 C 
BRANCH   5   4
ATOM      1  C   UNL     1      43.749  18.256  20.748  0.00  0.00    +0.073 C 
ATOM      2  C   UNL     1      43.075  19.474  20.172  0.00  0.00    -0.126 C 
ATOM      3  C   UNL     1      41.644  19.394  19.708  0.00  0.00    +0.072 C 
ATOM      4  C   UNL     1      43.734  20.602  20.073  0.00  0.00    -0.063 C 
ENDBRANCH   5   4
ENDBRANCH   6   5
ENDBRANCH   7   6
BRANCH  11  12
ATOM     12  C   UNL     1      50.572  19.052  19.989  0.00  0.00    +0.100 C 
BRANCH  12  13
ATOM     13  C   UNL     1      51.664  18.983  18.920  0.00  0.00    +0.056 C 
BRANCH  13  14
ATOM     14  C   UNL     1      51.658  20.255  18.112  0.00  0.00    -0.053 C 
ATOM     15  C   UNL     1      51.636  20.202  16.804  0.00  0.00    -0.132 C 
ATOM     16  C   UNL     1      51.494  21.467  15.999  0.00  0.00    +0.072 C 
ATOM     17  C   UNL     1      51.751  18.872  16.103  0.00  0.00    +0.071 C 
ENDBRANCH  13  14
ENDBRANCH  12  13
ENDBRANCH  11  12
TORSDOF 11
ENDMDL
MODEL 2
REMARK VINA RESULT:      -5.9      1.798      5.343
REMARK  Name = ZINC95485974
REMARK  17 active torsions:
REMARK  status: ('A' for Active; 'I' for Inactive)
REMARK    1  A    between atoms: C1_1  and  C2_2
REMARK    2  A    between atoms: C2_2  and  C27_34
REMARK    3  A    between atoms: C3_3  and  C4_4
REMARK    4  A    between atoms: C4_4  and  C5_5
REMARK    5  A    between atoms: C5_5  and  C6_6
REMARK    6  A    between atoms: C7_7  and  O7_33
REMARK    7  A    between atoms: C8_8  and  C21_27
REMARK    8  A    between atoms: C11_11  and  O1_12
REMARK    9  A    between atoms: C15_17  and  O6_25
REMARK   10  A    between atoms: C16_18  and  O5_23
REMARK   11  A    between atoms: C17_19  and  O4_22
REMARK   12  A    between atoms: O5_23  and  C19_24
REMARK   13  A    between atoms: O6_25  and  C20_26
REMARK   14  A    between atoms: C21_27  and  C22_28
REMARK   15  A    between atoms: C22_28  and  C23_29
REMARK   16  A    between atoms: C24_30  and  C25_31
REMARK   17  A    between atoms: C24_30  and  C26_32
REMARK                            x       y       z     vdW  Elec       q    Type
REMARK                         _______ _______ _______ _____ _____    ______ ____
ROOT
ATOM      7  C   UNL     1      50.771  19.781  18.060  0.00  0.00    -0.165 A 
ATOM      8  C   UNL     1      49.531  19.916  18.676  0.00  0.00    +0.195 A 
ATOM     11  C   UNL     1      48.664  18.839  18.767  0.00  0.00    -0.140 A 
ATOM     18  C   UNL     1      49.023  17.606  18.239  0.00  0.00    +0.189 A 
ATOM     19  C   UNL     1      50.273  17.473  17.608  0.00  0.00    -0.264 A 
ATOM     20  C   UNL     1      50.633  16.165  17.031  0.00  0.00    +0.445 A 
ATOM     21  C   UNL     1      49.532  15.185  16.915  0.00  0.00    -0.175 A 
ATOM     22  C   UNL     1      49.682  14.026  16.152  0.00  0.00    +0.037 A 
ATOM     23  C   UNL     1      48.637  13.130  16.058  0.00  0.00    +0.102 A 
ATOM     26  C   UNL     1      47.436  13.386  16.721  0.00  0.00    +0.104 A 
ATOM     29  C   UNL     1      47.282  14.536  17.482  0.00  0.00    +0.106 A 
ATOM     32  C   UNL     1      48.330  15.448  17.589  0.00  0.00    +0.110 A 
ATOM     33  O   UNL     1      51.768  15.908  16.672  0.00  0.00    -0.430 OA
ATOM     34  O   UNL     1      48.181  16.559  18.341  0.00  0.00    -0.208 OA
ATOM     35  C   UNL     1      51.146  18.564  17.522  0.00  0.00    +0.216 A 
ENDROOT
BRANCH   8   9
ATOM      9  O   UNL     1      49.165  21.116  19.194  0.00  0.00    -0.479 OA
ATOM     10  H   UNL     1      48.476  21.060  19.869  0.00  0.00    +0.398 HD
ENDBRANCH   8   9
BRANCH  23  24
ATOM     24  O   UNL     1      48.775  11.998  15.316  0.00  0.00    -0.298 OA
ATOM     25  C   UNL     1      50.069  11.391  15.294  0.00  0.00    +0.249 C 
ENDBRANCH  23  24
BRANCH  26  27
ATOM     27  O   UNL     1      46.409  12.501  16.622  0.00  0.00    -0.309 OA
ATOM     28  C   UNL     1      46.535  11.277  17.350  0.00  0.00    +0.235 C 
ENDBRANCH  26  27
BRANCH  29  30
ATOM     30  O   UNL     1      46.106  14.773  18.124  0.00  0.00    -0.462 OA
ATOM     31  H   UNL     1      46.171  15.422  18.838  0.00  0.00    +0.392 HD
ENDBRANCH  29  30
BRANCH  35  36
ATOM     36  O   UNL     1      52.354  18.428  16.919  0.00  0.00    -0.472 OA
ATOM     37  H   UNL     1      52.685  17.520  16.902  0.00  0.00    +0.402 HD
ENDBRANCH  35  36
BRANCH   7   6
ATOM      6  C   UNL     1      51.702  20.964  17.975  0.00  0.00    +0.098 C 
BRANCH   6   5
ATOM      5  C   UNL     1      52.778  20.843  19.055  0.00  0.00    +0.054 C 
BRANCH   5   4
ATOM      1  C   UNL     1      52.049  19.749  21.551  0.00  0.00    +0.073 C 
ATOM      2  C   UNL     1      52.043  21.242  21.349  0.00  0.00    -0.126 C 
ATOM      3  C   UNL     1      51.582  22.150  22.460  0.00  0.00    +0.072 C 
ATOM      4  C   UNL     1      52.436  21.751  20.208  0.00  0.00    -0.063 C 
ENDBRANCH   5   4
ENDBRANCH   6   5
ENDBRANCH   7   6
BRANCH  11  12
ATOM     12  C   UNL     1      47.327  19.006  19.441  0.00  0.00    +0.100 C 
BRANCH  12  13
ATOM     13  C   UNL     1      46.285  19.437  18.407  0.00  0.00    +0.056 C 
BRANCH  13  14
ATOM     14  C   UNL     1      45.750  20.799  18.768  0.00  0.00    -0.053 C 
ATOM     15  C   UNL     1      44.549  20.919  19.275  0.00  0.00    -0.132 C 
ATOM     16  C   UNL     1      44.065  22.260  19.762  0.00  0.00    +0.072 C 
ATOM     17  C   UNL     1      43.649  19.713  19.373  0.00  0.00    +0.071 C 
ENDBRANCH  13  14
ENDBRANCH  12  13
ENDBRANCH  11  12
TORSDOF 11
ENDMDL
MODEL 3
REMARK VINA RESULT:      -5.9      2.594      5.917
REMARK  Name = ZINC95485974
REMARK  17 active torsions:
REMARK  status: ('A' for Active; 'I' for Inactive)
REMARK    1  A    between atoms: C1_1  and  C2_2
REMARK    2  A    between atoms: C2_2  and  C27_34
REMARK    3  A    between atoms: C3_3  and  C4_4
REMARK    4  A    between atoms: C4_4  and  C5_5
REMARK    5  A    between atoms: C5_5  and  C6_6
REMARK    6  A    between atoms: C7_7  and  O7_33
REMARK    7  A    between atoms: C8_8  and  C21_27
REMARK    8  A    between atoms: C11_11  and  O1_12
REMARK    9  A    between atoms: C15_17  and  O6_25
REMARK   10  A    between atoms: C16_18  and  O5_23
REMARK   11  A    between atoms: C17_19  and  O4_22
REMARK   12  A    between atoms: O5_23  and  C19_24
REMARK   13  A    between atoms: O6_25  and  C20_26
REMARK   14  A    between atoms: C21_27  and  C22_28
REMARK   15  A    between atoms: C22_28  and  C23_29
REMARK   16  A    between atoms: C24_30  and  C25_31
REMARK   17  A    between atoms: C24_30  and  C26_32
REMARK                            x       y       z     vdW  Elec       q    Type
REMARK                         _______ _______ _______ _____ _____    ______ ____
ROOT
ATOM      7  C   UNL     1      43.438  18.889  21.670  0.00  0.00    -0.165 A 
ATOM      8  C   UNL     1      43.824  17.556  21.764  0.00  0.00    +0.195 A 
ATOM     11  C   UNL     1      45.127  17.175  21.487  0.00  0.00    -0.140 A 
ATOM     18  C   UNL     1      46.068  18.123  21.108  0.00  0.00    +0.189 A 
ATOM     19  C   UNL     1      45.673  19.469  21.003  0.00  0.00    -0.264 A 
ATOM     20  C   UNL     1      46.675  20.463  20.576  0.00  0.00    +0.445 A 
ATOM     21  C   UNL     1      47.931  19.917  20.020  0.00  0.00    -0.175 A 
ATOM     22  C   UNL     1      48.834  20.740  19.345  0.00  0.00    +0.037 A 
ATOM     23  C   UNL     1      49.997  20.202  18.833  0.00  0.00    +0.102 A 
ATOM     26  C   UNL     1      50.266  18.842  18.990  0.00  0.00    +0.104 A 
ATOM     29  C   UNL     1      49.373  18.020  19.661  0.00  0.00    +0.106 A 
ATOM     32  C   UNL     1      48.196  18.548  20.186  0.00  0.00    +0.110 A 
ATOM     33  O   UNL     1      46.480  21.661  20.675  0.00  0.00    -0.430 OA
ATOM     34  O   UNL     1      47.336  17.748  20.850  0.00  0.00    -0.208 OA
ATOM     35  C   UNL     1      44.356  19.849  21.287  0.00  0.00    +0.216 A 
ENDROOT
BRANCH   8   9
ATOM      9  O   UNL     1      42.915  16.618  22.132  0.00  0.00    -0.479 OA
ATOM     10  H   UNL     1      42.136  16.978  22.579  0.00  0.00    +0.398 HD
ENDBRANCH   8   9
BRANCH  23  24
ATOM     24  O   UNL     1      50.882  20.998  18.173  0.00  0.00    -0.298 OA
ATOM     25  C   UNL     1      52.008  21.472  18.916  0.00  0.00    +0.249 C 
ENDBRANCH  23  24
BRANCH  26  27
ATOM     27  O   UNL     1      51.412  18.318  18.481  0.00  0.00    -0.309 OA
ATOM     28  C   UNL     1      51.377  17.879  17.121  0.00  0.00    +0.235 C 
ENDBRANCH  26  27
BRANCH  29  30
ATOM     30  O   UNL     1      49.647  16.695  19.807  0.00  0.00    -0.462 OA
ATOM     31  H   UNL     1      49.668  16.396  20.726  0.00  0.00    +0.392 HD
ENDBRANCH  29  30
BRANCH  35  36
ATOM     36  O   UNL     1      43.984  21.150  21.192  0.00  0.00    -0.472 OA
ATOM     37  H   UNL     1      43.055  21.310  21.405  0.00  0.00    +0.402 HD
ENDBRANCH  35  36
BRANCH   7   6
ATOM      6  C   UNL     1      42.017  19.285  21.980  0.00  0.00    +0.098 C 
BRANCH   6   5
ATOM      5  C   UNL     1      41.119  18.929  20.793  0.00  0.00    +0.054 C 
BRANCH   5   4
ATOM      1  C   UNL     1      42.210  19.821  18.350  0.00  0.00    +0.073 C 
ATOM      2  C   UNL     1      41.154  20.638  19.049  0.00  0.00    -0.126 C 
ATOM      3  C   UNL     1      40.728  21.966  18.478  0.00  0.00    +0.072 C 
ATOM      4  C   UNL     1      40.607  20.195  20.154  0.00  0.00    -0.063 C 
ENDBRANCH   5   4
ENDBRANCH   6   5
ENDBRANCH   7   6
BRANCH  11  12
ATOM     12  C   UNL     1      45.525  15.726  21.598  0.00  0.00    +0.100 C 
BRANCH  12  13
ATOM     13  C   UNL     1      45.088  14.978  20.337  0.00  0.00    +0.056 C 
BRANCH  13  14
ATOM     14  C   UNL     1      46.279  14.288  19.723  0.00  0.00    -0.053 C 
ATOM     15  C   UNL     1      46.862  14.800  18.668  0.00  0.00    -0.132 C 
ATOM     16  C   UNL     1      48.130  14.187  18.135  0.00  0.00    +0.072 C 
ATOM     17  C   UNL     1      46.264  16.005  17.988  0.00  0.00    +0.071 C 
ENDBRANCH  13  14
ENDBRANCH  12  13
ENDBRANCH  11  12
TORSDOF 11
ENDMDL
MODEL 4
REMARK VINA RESULT:      -5.8      1.435      5.499
REMARK  Name = ZINC95485974
REMARK  17 active torsions:
REMARK  status: ('A' for Active; 'I' for Inactive)
REMARK    1  A    between atoms: C1_1  and  C2_2
REMARK    2  A    between atoms: C2_2  and  C27_34
REMARK    3  A    between atoms: C3_3  and  C4_4
REMARK    4  A    between atoms: C4_4  and  C5_5
REMARK    5  A    between atoms: C5_5  and  C6_6
REMARK    6  A    between atoms: C7_7  and  O7_33
REMARK    7  A    between atoms: C8_8  and  C21_27
REMARK    8  A    between atoms: C11_11  and  O1_12
REMARK    9  A    between atoms: C15_17  and  O6_25
REMARK   10  A    between atoms: C16_18  and  O5_23
REMARK   11  A    between atoms: C17_19  and  O4_22
REMARK   12  A    between atoms: O5_23  and  C19_24
REMARK   13  A    between atoms: O6_25  and  C20_26
REMARK   14  A    between atoms: C21_27  and  C22_28
REMARK   15  A    between atoms: C22_28  and  C23_29
REMARK   16  A    between atoms: C24_30  and  C25_31
REMARK   17  A    between atoms: C24_30  and  C26_32
REMARK                            x       y       z     vdW  Elec       q    Type
REMARK                         _______ _______ _______ _____ _____    ______ ____
ROOT
ATOM      7  C   UNL     1      49.476  19.067  19.824  0.00  0.00    -0.165 A 
ATOM      8  C   UNL     1      48.273  19.288  19.162  0.00  0.00    +0.195 A 
ATOM     11  C   UNL     1      47.680  18.283  18.414  0.00  0.00    -0.140 A 
ATOM     18  C   UNL     1      48.285  17.037  18.314  0.00  0.00    +0.189 A 
ATOM     19  C   UNL     1      49.507  16.818  18.975  0.00  0.00    -0.264 A 
ATOM     20  C   UNL     1      50.150  15.498  18.841  0.00  0.00    +0.445 A 
ATOM     21  C   UNL     1      49.600  14.614  17.793  0.00  0.00    -0.175 A 
ATOM     22  C   UNL     1      50.284  13.464  17.394  0.00  0.00    +0.037 A 
ATOM     23  C   UNL     1      49.748  12.659  16.409  0.00  0.00    +0.102 A 
ATOM     26  C   UNL     1      48.531  12.996  15.816  0.00  0.00    +0.104 A 
ATOM     29  C   UNL     1      47.847  14.137  16.210  0.00  0.00    +0.106 A 
ATOM     32  C   UNL     1      48.373  14.958  17.205  0.00  0.00    +0.110 A 
ATOM     33  O   UNL     1      51.079  15.158  19.552  0.00  0.00    -0.430 OA
ATOM     34  O   UNL     1      47.698  16.060  17.594  0.00  0.00    -0.208 OA
ATOM     35  C   UNL     1      50.099  17.836  19.732  0.00  0.00    +0.216 A 
ENDROOT
BRANCH   8   9
ATOM      9  O   UNL     1      47.671  20.502  19.250  0.00  0.00    -0.479 OA
ATOM     10  H   UNL     1      47.846  21.082  18.496  0.00  0.00    +0.398 HD
ENDBRANCH   8   9
BRANCH  23  24
ATOM     24  O   UNL     1      50.409  11.537  16.014  0.00  0.00    -0.298 OA
ATOM     25  C   UNL     1      51.419  11.696  15.015  0.00  0.00    +0.249 C 
ENDBRANCH  23  24
BRANCH  26  27
ATOM     27  O   UNL     1      48.011  12.200  14.845  0.00  0.00    -0.309 OA
ATOM     28  C   UNL     1      47.153  11.137  15.268  0.00  0.00    +0.235 C 
ENDBRANCH  26  27
BRANCH  29  30
ATOM     30  O   UNL     1      46.661  14.454  15.623  0.00  0.00    -0.462 OA
ATOM     31  H   UNL     1      45.893  14.334  16.199  0.00  0.00    +0.392 HD
ENDBRANCH  29  30
BRANCH  35  36
ATOM     36  O   UNL     1      51.273  17.616  20.374  0.00  0.00    -0.472 OA
ATOM     37  H   UNL     1      51.268  17.877  21.305  0.00  0.00    +0.402 HD
ENDBRANCH  35  36
BRANCH   7   6
ATOM      6  C   UNL     1      50.103  20.171  20.636  0.00  0.00    +0.098 C 
BRANCH   6   5
ATOM      5  C   UNL     1      51.404  20.620  19.968  0.00  0.00    +0.054 C 
BRANCH   5   4
ATOM      1  C   UNL     1      52.567  19.493  17.659  0.00  0.00    +0.073 C 
ATOM      2  C   UNL     1      51.683  20.708  17.544  0.00  0.00    -0.126 C 
ATOM      3  C   UNL     1      51.474  21.363  16.203  0.00  0.00    +0.072 C 
ATOM      4  C   UNL     1      51.098  21.196  18.610  0.00  0.00    -0.063 C 
ENDBRANCH   5   4
ENDBRANCH   6   5
ENDBRANCH   7   6
BRANCH  11  12
ATOM     12  C   UNL     1      46.375  18.543  17.707  0.00  0.00    +0.100 C 
BRANCH  12  13
ATOM     13  C   UNL     1      45.226  18.466  18.714  0.00  0.00    +0.056 C 
BRANCH  13  14
ATOM     14  C   UNL     1      44.285  19.623  18.494  0.00  0.00    -0.053 C 
ATOM     15  C   UNL     1      43.298  19.833  19.328  0.00  0.00    -0.132 C 
ATOM     16  C   UNL     1      42.441  21.064  19.187  0.00  0.00    +0.072 C 
ATOM     17  C   UNL     1      43.020  18.844  20.431  0.00  0.00    +0.071 C 
ENDBRANCH  13  14
ENDBRANCH  12  13
ENDBRANCH  11  12
TORSDOF 11
ENDMDL
MODEL 5
REMARK VINA RESULT:      -5.7      1.621      7.154
REMARK  Name = ZINC95485974
REMARK  17 active torsions:
REMARK  status: ('A' for Active; 'I' for Inactive)
REMARK    1  A    between atoms: C1_1  and  C2_2
REMARK    2  A    between atoms: C2_2  and  C27_34
REMARK    3  A    between atoms: C3_3  and  C4_4
REMARK    4  A    between atoms: C4_4  and  C5_5
REMARK    5  A    between atoms: C5_5  and  C6_6
REMARK    6  A    between atoms: C7_7  and  O7_33
REMARK    7  A    between atoms: C8_8  and  C21_27
REMARK    8  A    between atoms: C11_11  and  O1_12
REMARK    9  A    between atoms: C15_17  and  O6_25
REMARK   10  A    between atoms: C16_18  and  O5_23
REMARK   11  A    between atoms: C17_19  and  O4_22
REMARK   12  A    between atoms: O5_23  and  C19_24
REMARK   13  A    between atoms: O6_25  and  C20_26
REMARK   14  A    between atoms: C21_27  and  C22_28
REMARK   15  A    between atoms: C22_28  and  C23_29
REMARK   16  A    between atoms: C24_30  and  C25_31
REMARK   17  A    between atoms: C24_30  and  C26_32
REMARK                            x       y       z     vdW  Elec       q    Type
REMARK                         _______ _______ _______ _____ _____    ______ ____
ROOT
ATOM      7  C   UNL     1      50.126  15.543  17.173  0.00  0.00    -0.165 A 
ATOM      8  C   UNL     1      51.033  16.301  17.907  0.00  0.00    +0.195 A 
ATOM     11  C   UNL     1      50.603  17.370  18.677  0.00  0.00    -0.140 A 
ATOM     18  C   UNL     1      49.255  17.700  18.725  0.00  0.00    +0.189 A 
ATOM     19  C   UNL     1      48.341  16.939  17.975  0.00  0.00    -0.264 A 
ATOM     20  C   UNL     1      46.916  17.315  18.016  0.00  0.00    +0.445 A 
ATOM     21  C   UNL     1      46.611  18.631  18.614  0.00  0.00    -0.175 A 
ATOM     22  C   UNL     1      45.348  19.209  18.471  0.00  0.00    +0.037 A 
ATOM     23  C   UNL     1      45.093  20.441  19.036  0.00  0.00    +0.102 A 
ATOM     26  C   UNL     1      46.095  21.105  19.745  0.00  0.00    +0.104 A 
ATOM     29  C   UNL     1      47.351  20.536  19.892  0.00  0.00    +0.106 A 
ATOM     32  C   UNL     1      47.623  19.291  19.329  0.00  0.00    +0.110 A 
ATOM     33  O   UNL     1      46.043  16.584  17.582  0.00  0.00    -0.430 OA
ATOM     34  O   UNL     1      48.842  18.733  19.485  0.00  0.00    -0.208 OA
ATOM     35  C   UNL     1      48.780  15.858  17.201  0.00  0.00    +0.216 A 
ENDROOT
BRANCH   8   9
ATOM      9  O   UNL     1      52.354  15.991  17.868  0.00  0.00    -0.479 OA
ATOM     10  H   UNL     1      52.936  16.759  17.792  0.00  0.00    +0.398 HD
ENDBRANCH   8   9
BRANCH  23  24
ATOM     24  O   UNL     1      43.864  21.011  18.901  0.00  0.00    -0.298 OA
ATOM     25  C   UNL     1      42.736  20.133  18.926  0.00  0.00    +0.249 C 
ENDBRANCH  23  24
BRANCH  26  27
ATOM     27  O   UNL     1      45.837  22.320  20.298  0.00  0.00    -0.309 OA
ATOM     28  C   UNL     1      45.277  22.329  21.613  0.00  0.00    +0.235 C 
ENDBRANCH  26  27
BRANCH  29  30
ATOM     30  O   UNL     1      48.318  21.194  20.586  0.00  0.00    -0.462 OA
ATOM     31  H   UNL     1      49.088  21.437  20.053  0.00  0.00    +0.392 HD
ENDBRANCH  29  30
BRANCH  35  36
ATOM     36  O   UNL     1      47.892  15.123  16.486  0.00  0.00    -0.472 OA
ATOM     37  H   UNL     1      46.977  15.213  16.784  0.00  0.00    +0.402 HD
ENDBRANCH  35  36
BRANCH   7   6
ATOM      6  C   UNL     1      50.612  14.381  16.345  0.00  0.00    +0.098 C 
BRANCH   6   5
ATOM      5  C   UNL     1      50.475  13.088  17.151  0.00  0.00    +0.054 C 
BRANCH   5   4
ATOM      1  C   UNL     1      51.435  13.048  19.803  0.00  0.00    +0.073 C 
ATOM      2  C   UNL     1      52.312  12.570  18.674  0.00  0.00    -0.126 C 
ATOM      3  C   UNL     1      53.727  12.134  18.953  0.00  0.00    +0.072 C 
ATOM      4  C   UNL     1      51.845  12.536  17.451  0.00  0.00    -0.063 C 
ENDBRANCH   5   4
ENDBRANCH   6   5
ENDBRANCH   7   6
BRANCH  11  12
ATOM     12  C   UNL     1      51.602  18.176  19.466  0.00  0.00    +0.100 C 
BRANCH  12  13
ATOM     13  C   UNL     1      52.680  18.715  18.525  0.00  0.00    +0.056 C 
BRANCH  13  14
ATOM     14  C   UNL     1      52.248  20.051  17.977  0.00  0.00    -0.053 C 
ATOM     15  C   UNL     1      51.933  20.170  16.712  0.00  0.00    -0.132 C 
ATOM     16  C   UNL     1      51.373  21.469  16.193  0.00  0.00    +0.072 C 
ATOM     17  C   UNL     1      52.128  19.006  15.774  0.00  0.00    +0.071 C 
ENDBRANCH  13  14
ENDBRANCH  12  13
ENDBRANCH  11  12
TORSDOF 11
ENDMDL
MODEL 6
REMARK VINA RESULT:      -5.7      1.773      2.065
REMARK  Name = ZINC95485974
REMARK  17 active torsions:
REMARK  status: ('A' for Active; 'I' for Inactive)
REMARK    1  A    between atoms: C1_1  and  C2_2
REMARK    2  A    between atoms: C2_2  and  C27_34
REMARK    3  A    between atoms: C3_3  and  C4_4
REMARK    4  A    between atoms: C4_4  and  C5_5
REMARK    5  A    between atoms: C5_5  and  C6_6
REMARK    6  A    between atoms: C7_7  and  O7_33
REMARK    7  A    between atoms: C8_8  and  C21_27
REMARK    8  A    between atoms: C11_11  and  O1_12
REMARK    9  A    between atoms: C15_17  and  O6_25
REMARK   10  A    between atoms: C16_18  and  O5_23
REMARK   11  A    between atoms: C17_19  and  O4_22
REMARK   12  A    between atoms: O5_23  and  C19_24
REMARK   13  A    between atoms: O6_25  and  C20_26
REMARK   14  A    between atoms: C21_27  and  C22_28
REMARK   15  A    between atoms: C22_28  and  C23_29
REMARK   16  A    between atoms: C24_30  and  C25_31
REMARK   17  A    between atoms: C24_30  and  C26_32
REMARK                            x       y       z     vdW  Elec       q    Type
REMARK                         _______ _______ _______ _____ _____    ______ ____
ROOT
ATOM      7  C   UNL     1      48.075  19.067  20.769  0.00  0.00    -0.165 A 
ATOM      8  C   UNL     1      49.459  18.939  20.790  0.00  0.00    +0.195 A 
ATOM     11  C   UNL     1      50.105  18.082  19.913  0.00  0.00    -0.140 A 
ATOM     18  C   UNL     1      49.374  17.336  18.999  0.00  0.00    +0.189 A 
ATOM     19  C   UNL     1      47.973  17.458  18.985  0.00  0.00    -0.264 A 
ATOM     20  C   UNL     1      47.206  16.642  18.026  0.00  0.00    +0.445 A 
ATOM     21  C   UNL     1      47.953  15.556  17.358  0.00  0.00    -0.175 A 
ATOM     22  C   UNL     1      47.286  14.561  16.642  0.00  0.00    +0.037 A 
ATOM     23  C   UNL     1      48.010  13.557  16.032  0.00  0.00    +0.102 A 
ATOM     26  C   UNL     1      49.401  13.538  16.134  0.00  0.00    +0.104 A 
ATOM     29  C   UNL     1      50.070  14.524  16.843  0.00  0.00    +0.106 A 
ATOM     32  C   UNL     1      49.353  15.547  17.462  0.00  0.00    +0.110 A 
ATOM     33  O   UNL     1      46.028  16.851  17.798  0.00  0.00    -0.430 OA
ATOM     34  O   UNL     1      50.008  16.512  18.140  0.00  0.00    -0.208 OA
ATOM     35  C   UNL     1      47.326  18.328  19.872  0.00  0.00    +0.216 A 
ENDROOT
BRANCH   8   9
ATOM      9  O   UNL     1      50.187  19.661  21.679  0.00  0.00    -0.479 OA
ATOM     10  H   UNL     1      49.788  19.721  22.558  0.00  0.00    +0.398 HD
ENDBRANCH   8   9
BRANCH  23  24
ATOM     24  O   UNL     1      47.366  12.584  15.332  0.00  0.00    -0.298 OA
ATOM     25  C   UNL     1      46.611  11.633  16.088  0.00  0.00    +0.249 C 
ENDBRANCH  23  24
BRANCH  26  27
ATOM     27  O   UNL     1      50.107  12.544  15.533  0.00  0.00    -0.309 OA
ATOM     28  C   UNL     1      50.487  12.751  14.171  0.00  0.00    +0.235 C 
ENDBRANCH  26  27
BRANCH  29  30
ATOM     30  O   UNL     1      51.427  14.494  16.935  0.00  0.00    -0.462 OA
ATOM     31  H   UNL     1      51.874  15.148  16.381  0.00  0.00    +0.392 HD
ENDBRANCH  29  30
BRANCH  35  36
ATOM     36  O   UNL     1      45.975  18.448  19.848  0.00  0.00    -0.472 OA
ATOM     37  H   UNL     1      45.586  18.683  20.701  0.00  0.00    +0.402 HD
ENDBRANCH  35  36
BRANCH   7   6
ATOM      6  C   UNL     1      47.390  20.007  21.728  0.00  0.00    +0.098 C 
BRANCH   6   5
ATOM      5  C   UNL     1      47.342  21.410  21.118  0.00  0.00    +0.054 C 
BRANCH   5   4
ATOM      1  C   UNL     1      45.970  21.555  18.658  0.00  0.00    +0.073 C 
ATOM      2  C   UNL     1      45.297  22.011  19.928  0.00  0.00    -0.126 C 
ATOM      3  C   UNL     1      43.914  22.609  19.874  0.00  0.00    +0.072 C 
ATOM      4  C   UNL     1      45.914  21.890  21.077  0.00  0.00    -0.063 C 
ENDBRANCH   5   4
ENDBRANCH   6   5
ENDBRANCH   7   6
BRANCH  11  12
ATOM     12  C   UNL     1      51.607  17.960  19.951  0.00  0.00    +0.100 C 
BRANCH  12  13
ATOM     13  C   UNL     1      52.236  19.236  19.387  0.00  0.00    +0.056 C 
BRANCH  13  14
ATOM     14  C   UNL     1      52.335  19.128  17.887  0.00  0.00    -0.053 C 
ATOM     15  C   UNL     1      51.709  19.991  17.125  0.00  0.00    -0.132 C 
ATOM     16  C   UNL     1      51.915  19.967  15.633  0.00  0.00    +0.072 C 
ATOM     17  C   UNL     1      50.784  21.009  17.742  0.00  0.00    +0.071 C 
ENDBRANCH  13  14
ENDBRANCH  12  13
ENDBRANCH  11  12
TORSDOF 11
ENDMDL
MODEL 7
REMARK VINA RESULT:      -5.6      2.161      7.555
REMARK  Name = ZINC95485974
REMARK  17 active torsions:
REMARK  status: ('A' for Active; 'I' for Inactive)
REMARK    1  A    between atoms: C1_1  and  C2_2
REMARK    2  A    between atoms: C2_2  and  C27_34
REMARK    3  A    between atoms: C3_3  and  C4_4
REMARK    4  A    between atoms: C4_4  and  C5_5
REMARK    5  A    between atoms: C5_5  and  C6_6
REMARK    6  A    between atoms: C7_7  and  O7_33
REMARK    7  A    between atoms: C8_8  and  C21_27
REMARK    8  A    between atoms: C11_11  and  O1_12
REMARK    9  A    between atoms: C15_17  and  O6_25
REMARK   10  A    between atoms: C16_18  and  O5_23
REMARK   11  A    between atoms: C17_19  and  O4_22
REMARK   12  A    between atoms: O5_23  and  C19_24
REMARK   13  A    between atoms: O6_25  and  C20_26
REMARK   14  A    between atoms: C21_27  and  C22_28
REMARK   15  A    between atoms: C22_28  and  C23_29
REMARK   16  A    between atoms: C24_30  and  C25_31
REMARK   17  A    between atoms: C24_30  and  C26_32
REMARK                            x       y       z     vdW  Elec       q    Type
REMARK                         _______ _______ _______ _____ _____    ______ ____
ROOT
ATOM      7  C   UNL     1      47.849  14.055  18.341  0.00  0.00    -0.165 A 
ATOM      8  C   UNL     1      48.554  15.027  17.639  0.00  0.00    +0.195 A 
ATOM     11  C   UNL     1      48.193  16.362  17.721  0.00  0.00    -0.140 A 
ATOM     18  C   UNL     1      47.116  16.748  18.508  0.00  0.00    +0.189 A 
ATOM     19  C   UNL     1      46.398  15.764  19.210  0.00  0.00    -0.264 A 
ATOM     20  C   UNL     1      45.242  16.184  20.023  0.00  0.00    +0.445 A 
ATOM     21  C   UNL     1      44.765  17.565  19.804  0.00  0.00    -0.175 A 
ATOM     22  C   UNL     1      43.534  17.988  20.309  0.00  0.00    +0.037 A 
ATOM     23  C   UNL     1      43.112  19.282  20.085  0.00  0.00    +0.102 A 
ATOM     26  C   UNL     1      43.913  20.161  19.355  0.00  0.00    +0.104 A 
ATOM     29  C   UNL     1      45.138  19.748  18.852  0.00  0.00    +0.106 A 
ATOM     32  C   UNL     1      45.579  18.445  19.073  0.00  0.00    +0.110 A 
ATOM     33  O   UNL     1      44.713  15.438  20.828  0.00  0.00    -0.430 OA
ATOM     34  O   UNL     1      46.777  18.050  18.593  0.00  0.00    -0.208 OA
ATOM     35  C   UNL     1      46.769  14.416  19.126  0.00  0.00    +0.216 A 
ENDROOT
BRANCH   8   9
ATOM      9  O   UNL     1      49.607  14.663  16.864  0.00  0.00    -0.479 OA
ATOM     10  H   UNL     1      50.311  14.207  17.345  0.00  0.00    +0.398 HD
ENDBRANCH   8   9
BRANCH  23  24
ATOM     24  O   UNL     1      41.913  19.701  20.573  0.00  0.00    -0.298 OA
ATOM     25  C   UNL     1      41.174  18.768  21.365  0.00  0.00    +0.249 C 
ENDBRANCH  23  24
BRANCH  26  27
ATOM     27  O   UNL     1      43.490  21.434  19.136  0.00  0.00    -0.309 OA
ATOM     28  C   UNL     1      43.963  22.439  20.036  0.00  0.00    +0.235 C 
ENDBRANCH  26  27
BRANCH  29  30
ATOM     30  O   UNL     1      45.909  20.616  18.143  0.00  0.00    -0.462 OA
ATOM     31  H   UNL     1      46.369  21.269  18.687  0.00  0.00    +0.392 HD
ENDBRANCH  29  30
BRANCH  35  36
ATOM     36  O   UNL     1      46.077  13.472  19.812  0.00  0.00    -0.472 OA
ATOM     37  H   UNL     1      45.272  13.175  19.369  0.00  0.00    +0.402 HD
ENDBRANCH  35  36
BRANCH   7   6
ATOM      6  C   UNL     1      48.259  12.608  18.243  0.00  0.00    +0.098 C 
BRANCH   6   5
ATOM      5  C   UNL     1      47.653  11.991  16.981  0.00  0.00    +0.054 C 
BRANCH   5   4
ATOM      1  C   UNL     1      48.326  12.548  14.299  0.00  0.00    +0.073 C 
ATOM      2  C   UNL     1      48.966  11.385  15.014  0.00  0.00    -0.126 C 
ATOM      3  C   UNL     1      49.916  10.478  14.275  0.00  0.00    +0.072 C 
ATOM      4  C   UNL     1      48.695  11.163  16.276  0.00  0.00    -0.063 C 
ENDBRANCH   5   4
ENDBRANCH   6   5
ENDBRANCH   7   6
BRANCH  11  12
ATOM     12  C   UNL     1      48.972  17.399  16.954  0.00  0.00    +0.100 C 
BRANCH  12  13
ATOM     13  C   UNL     1      50.140  17.895  17.808  0.00  0.00    +0.056 C 
BRANCH  13  14
ATOM     14  C   UNL     1      51.056  18.743  16.964  0.00  0.00    -0.053 C 
ATOM     15  C   UNL     1      51.196  20.018  17.227  0.00  0.00    -0.132 C 
ATOM     16  C   UNL     1      52.211  20.837  16.472  0.00  0.00    +0.072 C 
ATOM     17  C   UNL     1      50.341  20.668  18.285  0.00  0.00    +0.071 C 
ENDBRANCH  13  14
ENDBRANCH  12  13
ENDBRANCH  11  12
TORSDOF 11
ENDMDL
MODEL 8
REMARK VINA RESULT:      -5.5      3.158      7.745
REMARK  Name = ZINC95485974
REMARK  17 active torsions:
REMARK  status: ('A' for Active; 'I' for Inactive)
REMARK    1  A    between atoms: C1_1  and  C2_2
REMARK    2  A    between atoms: C2_2  and  C27_34
REMARK    3  A    between atoms: C3_3  and  C4_4
REMARK    4  A    between atoms: C4_4  and  C5_5
REMARK    5  A    between atoms: C5_5  and  C6_6
REMARK    6  A    between atoms: C7_7  and  O7_33
REMARK    7  A    between atoms: C8_8  and  C21_27
REMARK    8  A    between atoms: C11_11  and  O1_12
REMARK    9  A    between atoms: C15_17  and  O6_25
REMARK   10  A    between atoms: C16_18  and  O5_23
REMARK   11  A    between atoms: C17_19  and  O4_22
REMARK   12  A    between atoms: O5_23  and  C19_24
REMARK   13  A    between atoms: O6_25  and  C20_26
REMARK   14  A    between atoms: C21_27  and  C22_28
REMARK   15  A    between atoms: C22_28  and  C23_29
REMARK   16  A    between atoms: C24_30  and  C25_31
REMARK   17  A    between atoms: C24_30  and  C26_32
REMARK                            x       y       z     vdW  Elec       q    Type
REMARK                         _______ _______ _______ _____ _____    ______ ____
ROOT
ATOM      7  C   UNL     1      49.756  19.471  20.543  0.00  0.00    -0.165 A 
ATOM      8  C   UNL     1      49.459  18.404  21.384  0.00  0.00    +0.195 A 
ATOM     11  C   UNL     1      48.165  17.915  21.479  0.00  0.00    -0.140 A 
ATOM     18  C   UNL     1      47.145  18.489  20.734  0.00  0.00    +0.189 A 
ATOM     19  C   UNL     1      47.444  19.575  19.892  0.00  0.00    -0.264 A 
ATOM     20  C   UNL     1      46.347  20.192  19.124  0.00  0.00    +0.445 A 
ATOM     21  C   UNL     1      44.979  19.799  19.522  0.00  0.00    -0.175 A 
ATOM     22  C   UNL     1      43.867  20.504  19.058  0.00  0.00    +0.037 A 
ATOM     23  C   UNL     1      42.602  20.118  19.450  0.00  0.00    +0.102 A 
ATOM     26  C   UNL     1      42.438  19.029  20.307  0.00  0.00    +0.104 A 
ATOM     29  C   UNL     1      43.539  18.324  20.770  0.00  0.00    +0.106 A 
ATOM     32  C   UNL     1      44.823  18.699  20.381  0.00  0.00    +0.110 A 
ATOM     33  O   UNL     1      46.556  20.977  18.216  0.00  0.00    -0.430 OA
ATOM     34  O   UNL     1      45.891  18.003  20.822  0.00  0.00    -0.208 OA
ATOM     35  C   UNL     1      48.754  20.063  19.797  0.00  0.00    +0.216 A 
ENDROOT
BRANCH   8   9
ATOM      9  O   UNL     1      50.447  17.833  22.120  0.00  0.00    -0.479 OA
ATOM     10  H   UNL     1      50.990  17.203  21.628  0.00  0.00    +0.398 HD
ENDBRANCH   8   9
BRANCH  23  24
ATOM     24  O   UNL     1      41.513  20.801  19.003  0.00  0.00    -0.298 OA
ATOM     25  C   UNL     1      41.674  22.204  18.780  0.00  0.00    +0.249 C 
ENDBRANCH  23  24
BRANCH  26  27
ATOM     27  O   UNL     1      41.189  18.655  20.691  0.00  0.00    -0.309 OA
ATOM     28  C   UNL     1      40.621  19.342  21.809  0.00  0.00    +0.235 C 
ENDBRANCH  26  27
BRANCH  29  30
ATOM     30  O   UNL     1      43.365  17.264  21.604  0.00  0.00    -0.462 OA
ATOM     31  H   UNL     1      43.165  17.511  22.518  0.00  0.00    +0.392 HD
ENDBRANCH  29  30
BRANCH  35  36
ATOM     36  O   UNL     1      49.038  21.105  18.977  0.00  0.00    -0.472 OA
ATOM     37  H   UNL     1      48.854  21.971  19.363  0.00  0.00    +0.402 HD
ENDBRANCH  35  36
BRANCH   7   6
ATOM      6  C   UNL     1      51.170  19.985  20.450  0.00  0.00    +0.098 C 
BRANCH   6   5
ATOM      5  C   UNL     1      51.969  19.106  19.487  0.00  0.00    +0.054 C 
BRANCH   5   4
ATOM      1  C   UNL     1      50.694  18.215  17.134  0.00  0.00    +0.073 C 
ATOM      2  C   UNL     1      51.631  19.395  17.086  0.00  0.00    -0.126 C 
ATOM      3  C   UNL     1      51.939  20.058  15.769  0.00  0.00    +0.072 C 
ATOM      4  C   UNL     1      52.177  19.843  18.189  0.00  0.00    -0.063 C 
ENDBRANCH   5   4
ENDBRANCH   6   5
ENDBRANCH   7   6
BRANCH  11  12
ATOM     12  C   UNL     1      47.866  16.756  22.394  0.00  0.00    +0.100 C 
BRANCH  12  13
ATOM     13  C   UNL     1      48.151  15.442  21.664  0.00  0.00    +0.056 C 
BRANCH  13  14
ATOM     14  C   UNL     1      46.849  14.764  21.321  0.00  0.00    -0.053 C 
ATOM     15  C   UNL     1      46.497  14.615  20.069  0.00  0.00    -0.132 C 
ATOM     16  C   UNL     1      45.266  13.821  19.721  0.00  0.00    +0.072 C 
ATOM     17  C   UNL     1      47.325  15.239  18.974  0.00  0.00    +0.071 C 
ENDBRANCH  13  14
ENDBRANCH  12  13
ENDBRANCH  11  12
TORSDOF 11
ENDMDL
MODEL 9
REMARK VINA RESULT:      -5.1      1.667      7.132
REMARK  Name = ZINC95485974
REMARK  17 active torsions:
REMARK  status: ('A' for Active; 'I' for Inactive)
REMARK    1  A    between atoms: C1_1  and  C2_2
REMARK    2  A    between atoms: C2_2  and  C27_34
REMARK    3  A    between atoms: C3_3  and  C4_4
REMARK    4  A    between atoms: C4_4  and  C5_5
REMARK    5  A    between atoms: C5_5  and  C6_6
REMARK    6  A    between atoms: C7_7  and  O7_33
REMARK    7  A    between atoms: C8_8  and  C21_27
REMARK    8  A    between atoms: C11_11  and  O1_12
REMARK    9  A    between atoms: C15_17  and  O6_25
REMARK   10  A    between atoms: C16_18  and  O5_23
REMARK   11  A    between atoms: C17_19  and  O4_22
REMARK   12  A    between atoms: O5_23  and  C19_24
REMARK   13  A    between atoms: O6_25  and  C20_26
REMARK   14  A    between atoms: C21_27  and  C22_28
REMARK   15  A    between atoms: C22_28  and  C23_29
REMARK   16  A    between atoms: C24_30  and  C25_31
REMARK   17  A    between atoms: C24_30  and  C26_32
REMARK                            x       y       z     vdW  Elec       q    Type
REMARK                         _______ _______ _______ _____ _____    ______ ____
ROOT
ATOM      7  C   UNL     1      50.155  14.447  18.603  0.00  0.00    -0.165 A 
ATOM      8  C   UNL     1      51.055  15.458  18.923  0.00  0.00    +0.195 A 
ATOM     11  C   UNL     1      50.609  16.735  19.225  0.00  0.00    -0.140 A 
ATOM     18  C   UNL     1      49.251  17.022  19.210  0.00  0.00    +0.189 A 
ATOM     19  C   UNL     1      48.342  16.002  18.877  0.00  0.00    -0.264 A 
ATOM     20  C   UNL     1      46.904  16.326  18.842  0.00  0.00    +0.445 A 
ATOM     21  C   UNL     1      46.565  17.764  18.880  0.00  0.00    -0.175 A 
ATOM     22  C   UNL     1      45.272  18.203  18.588  0.00  0.00    +0.037 A 
ATOM     23  C   UNL     1      44.985  19.552  18.628  0.00  0.00    +0.102 A 
ATOM     26  C   UNL     1      45.983  20.469  18.957  0.00  0.00    +0.104 A 
ATOM     29  C   UNL     1      47.268  20.039  19.250  0.00  0.00    +0.106 A 
ATOM     32  C   UNL     1      47.573  18.680  19.218  0.00  0.00    +0.110 A 
ATOM     33  O   UNL     1      46.048  15.461  18.784  0.00  0.00    -0.430 OA
ATOM     34  O   UNL     1      48.822  18.263  19.516  0.00  0.00    -0.208 OA
ATOM     35  C   UNL     1      48.798  14.712  18.576  0.00  0.00    +0.216 A 
ENDROOT
BRANCH   8   9
ATOM      9  O   UNL     1      52.386  15.192  18.939  0.00  0.00    -0.479 OA
ATOM     10  H   UNL     1      52.666  14.631  19.675  0.00  0.00    +0.398 HD
ENDBRANCH   8   9
BRANCH  23  24
ATOM     24  O   UNL     1      43.728  19.989  18.343  0.00  0.00    -0.298 OA
ATOM     25  C   UNL     1      42.734  19.807  19.355  0.00  0.00    +0.249 C 
ENDBRANCH  23  24
BRANCH  26  27
ATOM     27  O   UNL     1      45.693  21.797  18.992  0.00  0.00    -0.309 OA
ATOM     28  C   UNL     1      45.290  22.340  20.251  0.00  0.00    +0.235 C 
ENDBRANCH  26  27
BRANCH  29  30
ATOM     30  O   UNL     1      48.232  20.944  19.570  0.00  0.00    -0.462 OA
ATOM     31  H   UNL     1      49.112  20.558  19.684  0.00  0.00    +0.392 HD
ENDBRANCH  29  30
BRANCH  35  36
ATOM     36  O   UNL     1      47.916  13.730  18.263  0.00  0.00    -0.472 OA
ATOM     37  H   UNL     1      47.229  13.593  18.928  0.00  0.00    +0.402 HD
ENDBRANCH  35  36
BRANCH   7   6
ATOM      6  C   UNL     1      50.659  13.063  18.282  0.00  0.00    +0.098 C 
BRANCH   6   5
ATOM      5  C   UNL     1      50.273  12.701  16.847  0.00  0.00    +0.054 C 
BRANCH   5   4
ATOM      1  C   UNL     1      51.213  11.648  14.404  0.00  0.00    +0.073 C 
ATOM      2  C   UNL     1      51.515  13.077  14.778  0.00  0.00    -0.126 C 
ATOM      3  C   UNL     1      52.378  13.924  13.878  0.00  0.00    +0.072 C 
ATOM      4  C   UNL     1      51.030  13.581  15.886  0.00  0.00    -0.063 C 
ENDBRANCH   5   4
ENDBRANCH   6   5
ENDBRANCH   7   6
BRANCH  11  12
ATOM     12  C   UNL     1      51.601  17.814  19.571  0.00  0.00    +0.100 C 
BRANCH  12  13
ATOM     13  C   UNL     1      52.450  18.141  18.341  0.00  0.00    +0.056 C 
BRANCH  13  14
ATOM     14  C   UNL     1      52.208  19.570  17.927  0.00  0.00    -0.053 C 
ATOM     15  C   UNL     1      51.889  19.848  16.688  0.00  0.00    -0.132 C 
ATOM     16  C   UNL     1      51.516  21.256  16.304  0.00  0.00    +0.072 C 
ATOM     17  C   UNL     1      51.894  18.759  15.646  0.00  0.00    +0.071 C 
ENDBRANCH  13  14
ENDBRANCH  12  13
ENDBRANCH  11  12
TORSDOF 11
ENDMDL
