MODEL 1
REMARK VINA RESULT:      -6.4      0.000      0.000
REMARK  Name = ZINC95486145
REMARK  7 active torsions:
REMARK  status: ('A' for Active; 'I' for Inactive)
REMARK    1  A    between atoms: C1_1  and  C2_2
REMARK    2  A    between atoms: C5_5  and  O5_29
REMARK    3  A    between atoms: C6_7  and  C19_27
REMARK    4  A    between atoms: C6_7  and  C20_28
REMARK    5  A    between atoms: C11_13  and  C12_15
REMARK    6  A    between atoms: C12_15  and  C13_16
REMARK    7  A    between atoms: C15_18  and  O3_24
REMARK                            x       y       z     vdW  Elec       q    Type
REMARK                         _______ _______ _______ _____ _____    ______ ____
ROOT
ATOM      1  C   UNL     1      50.471  17.773  19.799  0.00  0.00    +0.030 C 
ATOM      2  C   UNL     1      49.546  18.450  18.775  0.00  0.00    -0.031 C 
ATOM      3  C   UNL     1      49.355  17.496  17.595  0.00  0.00    +0.027 C 
ATOM      4  C   UNL     1      50.691  17.297  16.876  0.00  0.00    -0.013 C 
ATOM      5  C   UNL     1      51.154  18.632  16.304  0.00  0.00    +0.168 C 
ATOM      8  C   UNL     1      51.319  19.689  17.393  0.00  0.00    -0.041 C 
ATOM      9  C   UNL     1      52.615  19.442  18.162  0.00  0.00    +0.035 C 
ATOM     10  C   UNL     1      51.472  21.048  16.666  0.00  0.00    +0.021 C 
ATOM     11  C   UNL     1      48.196  18.672  19.473  0.00  0.00    +0.035 C 
ATOM     22  C   UNL     1      48.352  19.713  20.584  0.00  0.00    +0.025 C 
ATOM     23  C   UNL     1      48.494  19.222  22.022  0.00  0.00    +0.180 C 
ATOM     24  O   UNL     1      47.285  19.808  21.536  0.00  0.00    -0.338 OA
ATOM     25  C   UNL     1      49.046  21.016  20.192  0.00  0.00    +0.046 C 
ATOM     26  C   UNL     1      50.377  20.702  19.498  0.00  0.00    +0.038 C 
ATOM     27  C   UNL     1      50.109  19.780  18.306  0.00  0.00    +0.009 C 
ENDROOT
BRANCH   5   6
ATOM      6  O   UNL     1      52.405  18.453  15.630  0.00  0.00    -0.564 OA
ATOM      7  H   UNL     1      52.366  17.838  14.885  0.00  0.00    +0.375 HD
ENDBRANCH   5   6
BRANCH  11  12
ATOM     12  C   UNL     1      47.118  19.125  18.494  0.00  0.00    +0.077 C 
BRANCH  12  13
ATOM     13  C   UNL     1      45.792  18.530  18.895  0.00  0.00    +0.152 C 
ATOM     14  C   UNL     1      44.776  19.328  19.214  0.00  0.00    -0.242 C 
ATOM     15  C   UNL     1      43.377  18.915  19.647  0.00  0.00    +0.200 C 
ATOM     18  C   UNL     1      42.673  20.266  19.895  0.00  0.00    +0.231 C 
ATOM     19  O   UNL     1      43.745  21.217  20.015  0.00  0.00    -0.336 OA
ATOM     20  C   UNL     1      44.763  20.804  19.233  0.00  0.00    +0.520 C 
ATOM     21  O   UNL     1      45.540  21.527  18.640  0.00  0.00    -0.445 OA
BRANCH  15  16
ATOM     16  O   UNL     1      43.427  18.140  20.846  0.00  0.00    -0.540 OA
ATOM     17  H   UNL     1      43.907  18.567  21.569  0.00  0.00    +0.381 HD
ENDBRANCH  15  16
ENDBRANCH  12  13
ENDBRANCH  11  12
TORSDOF 4
ENDMDL
MODEL 2
REMARK VINA RESULT:      -5.8      1.948      6.732
REMARK  Name = ZINC95486145
REMARK  7 active torsions:
REMARK  status: ('A' for Active; 'I' for Inactive)
REMARK    1  A    between atoms: C1_1  and  C2_2
REMARK    2  A    between atoms: C5_5  and  O5_29
REMARK    3  A    between atoms: C6_7  and  C19_27
REMARK    4  A    between atoms: C6_7  and  C20_28
REMARK    5  A    between atoms: C11_13  and  C12_15
REMARK    6  A    between atoms: C12_15  and  C13_16
REMARK    7  A    between atoms: C15_18  and  O3_24
REMARK                            x       y       z     vdW  Elec       q    Type
REMARK                         _______ _______ _______ _____ _____    ______ ____
ROOT
ATOM      1  C   UNL     1      45.771  21.971  21.281  0.00  0.00    +0.030 C 
ATOM      2  C   UNL     1      46.318  20.836  20.401  0.00  0.00    -0.031 C 
ATOM      3  C   UNL     1      45.688  20.958  19.013  0.00  0.00    +0.027 C 
ATOM      4  C   UNL     1      44.181  20.716  19.111  0.00  0.00    -0.013 C 
ATOM      5  C   UNL     1      43.935  19.290  19.591  0.00  0.00    +0.168 C 
ATOM      8  C   UNL     1      44.579  19.031  20.952  0.00  0.00    -0.041 C 
ATOM      9  C   UNL     1      43.734  19.667  22.054  0.00  0.00    +0.035 C 
ATOM     10  C   UNL     1      44.538  17.499  21.172  0.00  0.00    +0.021 C 
ATOM     11  C   UNL     1      47.836  21.049  20.291  0.00  0.00    +0.035 C 
ATOM     22  C   UNL     1      48.491  20.816  21.654  0.00  0.00    +0.025 C 
ATOM     23  C   UNL     1      48.846  22.032  22.505  0.00  0.00    +0.180 C 
ATOM     24  O   UNL     1      49.839  21.277  21.811  0.00  0.00    -0.338 OA
ATOM     25  C   UNL     1      48.117  19.518  22.368  0.00  0.00    +0.046 C 
ATOM     26  C   UNL     1      46.591  19.384  22.425  0.00  0.00    +0.038 C 
ATOM     27  C   UNL     1      46.030  19.472  21.004  0.00  0.00    +0.009 C 
ENDROOT
BRANCH   5   6
ATOM      6  O   UNL     1      42.526  19.056  19.687  0.00  0.00    -0.564 OA
ATOM      7  H   UNL     1      42.291  18.135  19.868  0.00  0.00    +0.375 HD
ENDBRANCH   5   6
BRANCH  11  12
ATOM     12  C   UNL     1      48.465  20.124  19.255  0.00  0.00    +0.077 C 
BRANCH  12  13
ATOM     13  C   UNL     1      49.610  20.833  18.578  0.00  0.00    +0.152 C 
ATOM     14  C   UNL     1      50.458  20.148  17.815  0.00  0.00    -0.242 C 
ATOM     15  C   UNL     1      51.667  20.684  17.063  0.00  0.00    +0.200 C 
ATOM     18  C   UNL     1      52.249  19.424  16.390  0.00  0.00    +0.231 C 
ATOM     19  O   UNL     1      51.661  18.324  17.106  0.00  0.00    -0.336 OA
ATOM     20  C   UNL     1      50.434  18.701  17.520  0.00  0.00    +0.520 C 
ATOM     21  O   UNL     1      49.468  17.971  17.629  0.00  0.00    -0.445 OA
BRANCH  15  16
ATOM     16  O   UNL     1      52.610  21.260  17.968  0.00  0.00    -0.540 OA
ATOM     17  H   UNL     1      52.847  20.683  18.708  0.00  0.00    +0.381 HD
ENDBRANCH  15  16
ENDBRANCH  12  13
ENDBRANCH  11  12
TORSDOF 4
ENDMDL
MODEL 3
REMARK VINA RESULT:      -5.7      3.408      4.517
REMARK  Name = ZINC95486145
REMARK  7 active torsions:
REMARK  status: ('A' for Active; 'I' for Inactive)
REMARK    1  A    between atoms: C1_1  and  C2_2
REMARK    2  A    between atoms: C5_5  and  O5_29
REMARK    3  A    between atoms: C6_7  and  C19_27
REMARK    4  A    between atoms: C6_7  and  C20_28
REMARK    5  A    between atoms: C11_13  and  C12_15
REMARK    6  A    between atoms: C12_15  and  C13_16
REMARK    7  A    between atoms: C15_18  and  O3_24
REMARK                            x       y       z     vdW  Elec       q    Type
REMARK                         _______ _______ _______ _____ _____    ______ ____
ROOT
ATOM      1  C   UNL     1      52.545  17.274  18.372  0.00  0.00    +0.030 C 
ATOM      2  C   UNL     1      51.156  17.573  17.785  0.00  0.00    -0.031 C 
ATOM      3  C   UNL     1      51.288  17.677  16.265  0.00  0.00    +0.027 C 
ATOM      4  C   UNL     1      52.156  18.887  15.909  0.00  0.00    -0.013 C 
ATOM      5  C   UNL     1      51.462  20.157  16.388  0.00  0.00    +0.168 C 
ATOM      8  C   UNL     1      51.218  20.136  17.896  0.00  0.00    -0.041 C 
ATOM      9  C   UNL     1      52.521  20.434  18.635  0.00  0.00    +0.035 C 
ATOM     10  C   UNL     1      50.244  21.301  18.199  0.00  0.00    +0.021 C 
ATOM     11  C   UNL     1      50.258  16.376  18.135  0.00  0.00    +0.035 C 
ATOM     22  C   UNL     1      50.024  16.329  19.647  0.00  0.00    +0.025 C 
ATOM     23  C   UNL     1      50.858  15.358  20.479  0.00  0.00    +0.180 C 
ATOM     24  O   UNL     1      49.483  15.114  20.180  0.00  0.00    -0.338 OA
ATOM     25  C   UNL     1      49.568  17.634  20.298  0.00  0.00    +0.046 C 
ATOM     26  C   UNL     1      50.512  18.770  19.890  0.00  0.00    +0.038 C 
ATOM     27  C   UNL     1      50.566  18.847  18.363  0.00  0.00    +0.009 C 
ENDROOT
BRANCH   5   6
ATOM      6  O   UNL     1      52.269  21.293  16.059  0.00  0.00    -0.564 OA
ATOM      7  H   UNL     1      52.732  21.215  15.214  0.00  0.00    +0.375 HD
ENDBRANCH   5   6
BRANCH  11  12
ATOM     12  C   UNL     1      48.917  16.442  17.411  0.00  0.00    +0.077 C 
BRANCH  12  13
ATOM     13  C   UNL     1      48.539  15.065  16.927  0.00  0.00    +0.152 C 
ATOM     14  C   UNL     1      47.418  14.493  17.359  0.00  0.00    -0.242 C 
ATOM     15  C   UNL     1      46.879  13.119  16.991  0.00  0.00    +0.200 C 
ATOM     18  C   UNL     1      45.579  13.019  17.815  0.00  0.00    +0.231 C 
ATOM     19  O   UNL     1      45.708  14.037  18.823  0.00  0.00    -0.336 OA
ATOM     20  C   UNL     1      46.431  15.051  18.305  0.00  0.00    +0.520 C 
ATOM     21  O   UNL     1      46.291  16.229  18.571  0.00  0.00    -0.445 OA
BRANCH  15  16
ATOM     16  O   UNL     1      47.802  12.097  17.371  0.00  0.00    -0.540 OA
ATOM     17  H   UNL     1      48.426  11.852  16.674  0.00  0.00    +0.381 HD
ENDBRANCH  15  16
ENDBRANCH  12  13
ENDBRANCH  11  12
TORSDOF 4
ENDMDL
MODEL 4
REMARK VINA RESULT:      -5.7      2.956      6.084
REMARK  Name = ZINC95486145
REMARK  7 active torsions:
REMARK  status: ('A' for Active; 'I' for Inactive)
REMARK    1  A    between atoms: C1_1  and  C2_2
REMARK    2  A    between atoms: C5_5  and  O5_29
REMARK    3  A    between atoms: C6_7  and  C19_27
REMARK    4  A    between atoms: C6_7  and  C20_28
REMARK    5  A    between atoms: C11_13  and  C12_15
REMARK    6  A    between atoms: C12_15  and  C13_16
REMARK    7  A    between atoms: C15_18  and  O3_24
REMARK                            x       y       z     vdW  Elec       q    Type
REMARK                         _______ _______ _______ _____ _____    ______ ____
ROOT
ATOM      1  C   UNL     1      47.981  20.958  19.726  0.00  0.00    +0.030 C 
ATOM      2  C   UNL     1      46.736  20.073  19.557  0.00  0.00    -0.031 C 
ATOM      3  C   UNL     1      45.800  20.745  18.552  0.00  0.00    +0.027 C 
ATOM      4  C   UNL     1      45.291  22.067  19.132  0.00  0.00    -0.013 C 
ATOM      5  C   UNL     1      44.472  21.780  20.385  0.00  0.00    +0.168 C 
ATOM      8  C   UNL     1      45.294  21.046  21.443  0.00  0.00    -0.041 C 
ATOM      9  C   UNL     1      46.230  22.029  22.144  0.00  0.00    +0.035 C 
ATOM     10  C   UNL     1      44.288  20.538  22.505  0.00  0.00    +0.021 C 
ATOM     11  C   UNL     1      47.218  18.731  18.982  0.00  0.00    +0.035 C 
ATOM     22  C   UNL     1      48.063  17.996  20.025  0.00  0.00    +0.025 C 
ATOM     23  C   UNL     1      49.583  18.068  19.907  0.00  0.00    +0.180 C 
ATOM     24  O   UNL     1      48.850  16.893  19.558  0.00  0.00    -0.338 OA
ATOM     25  C   UNL     1      47.451  17.867  21.419  0.00  0.00    +0.046 C 
ATOM     26  C   UNL     1      46.992  19.246  21.909  0.00  0.00    +0.038 C 
ATOM     27  C   UNL     1      46.029  19.843  20.881  0.00  0.00    +0.009 C 
ENDROOT
BRANCH   5   6
ATOM      6  O   UNL     1      43.994  23.013  20.934  0.00  0.00    -0.564 OA
ATOM      7  H   UNL     1      43.315  23.445  20.397  0.00  0.00    +0.375 HD
ENDBRANCH   5   6
BRANCH  11  12
ATOM     12  C   UNL     1      46.053  17.847  18.551  0.00  0.00    +0.077 C 
BRANCH  12  13
ATOM     13  C   UNL     1      46.495  16.949  17.424  0.00  0.00    +0.152 C 
ATOM     14  C   UNL     1      46.442  15.627  17.568  0.00  0.00    -0.242 C 
ATOM     15  C   UNL     1      46.848  14.569  16.553  0.00  0.00    +0.200 C 
ATOM     18  C   UNL     1      46.580  13.245  17.300  0.00  0.00    +0.231 C 
ATOM     19  O   UNL     1      46.491  13.620  18.685  0.00  0.00    -0.336 OA
ATOM     20  C   UNL     1      45.985  14.869  18.750  0.00  0.00    +0.520 C 
ATOM     21  O   UNL     1      45.268  15.298  19.633  0.00  0.00    -0.445 OA
BRANCH  15  16
ATOM     16  O   UNL     1      48.231  14.693  16.219  0.00  0.00    -0.540 OA
ATOM     17  H   UNL     1      48.825  14.642  16.981  0.00  0.00    +0.381 HD
ENDBRANCH  15  16
ENDBRANCH  12  13
ENDBRANCH  11  12
TORSDOF 4
ENDMDL
MODEL 5
REMARK VINA RESULT:      -5.7      2.299      6.369
REMARK  Name = ZINC95486145
REMARK  7 active torsions:
REMARK  status: ('A' for Active; 'I' for Inactive)
REMARK    1  A    between atoms: C1_1  and  C2_2
REMARK    2  A    between atoms: C5_5  and  O5_29
REMARK    3  A    between atoms: C6_7  and  C19_27
REMARK    4  A    between atoms: C6_7  and  C20_28
REMARK    5  A    between atoms: C11_13  and  C12_15
REMARK    6  A    between atoms: C12_15  and  C13_16
REMARK    7  A    between atoms: C15_18  and  O3_24
REMARK                            x       y       z     vdW  Elec       q    Type
REMARK                         _______ _______ _______ _____ _____    ______ ____
ROOT
ATOM      1  C   UNL     1      44.695  20.026  19.103  0.00  0.00    +0.030 C 
ATOM      2  C   UNL     1      46.050  19.533  19.635  0.00  0.00    -0.031 C 
ATOM      3  C   UNL     1      46.704  18.666  18.558  0.00  0.00    +0.027 C 
ATOM      4  C   UNL     1      45.865  17.406  18.336  0.00  0.00    -0.013 C 
ATOM      5  C   UNL     1      45.846  16.587  19.622  0.00  0.00    +0.168 C 
ATOM      8  C   UNL     1      45.267  17.381  20.792  0.00  0.00    -0.041 C 
ATOM      9  C   UNL     1      43.745  17.440  20.674  0.00  0.00    +0.035 C 
ATOM     10  C   UNL     1      45.595  16.575  22.073  0.00  0.00    +0.021 C 
ATOM     11  C   UNL     1      46.914  20.782  19.876  0.00  0.00    +0.035 C 
ATOM     22  C   UNL     1      46.332  21.599  21.031  0.00  0.00    +0.025 C 
ATOM     23  C   UNL     1      45.477  22.819  20.697  0.00  0.00    +0.180 C 
ATOM     24  O   UNL     1      46.815  22.939  21.183  0.00  0.00    -0.338 OA
ATOM     25  C   UNL     1      46.021  20.827  22.312  0.00  0.00    +0.046 C 
ATOM     26  C   UNL     1      45.165  19.599  21.979  0.00  0.00    +0.038 C 
ATOM     27  C   UNL     1      45.894  18.756  20.930  0.00  0.00    +0.009 C 
ENDROOT
BRANCH   5   6
ATOM      6  O   UNL     1      45.061  15.406  19.422  0.00  0.00    -0.564 OA
ATOM      7  H   UNL     1      45.255  14.939  18.597  0.00  0.00    +0.375 HD
ENDBRANCH   5   6
BRANCH  11  12
ATOM     12  C   UNL     1      48.363  20.418  20.185  0.00  0.00    +0.077 C 
BRANCH  12  13
ATOM     13  C   UNL     1      49.239  20.820  19.026  0.00  0.00    +0.152 C 
ATOM     14  C   UNL     1      50.217  20.012  18.621  0.00  0.00    -0.242 C 
ATOM     15  C   UNL     1      51.200  20.247  17.484  0.00  0.00    +0.200 C 
ATOM     18  C   UNL     1      52.087  18.985  17.521  0.00  0.00    +0.231 C 
ATOM     19  O   UNL     1      51.856  18.415  18.820  0.00  0.00    -0.336 OA
ATOM     20  C   UNL     1      50.587  18.698  19.183  0.00  0.00    +0.520 C 
ATOM     21  O   UNL     1      49.868  17.987  19.857  0.00  0.00    -0.445 OA
BRANCH  15  16
ATOM     16  O   UNL     1      51.977  21.422  17.724  0.00  0.00    -0.540 OA
ATOM     17  H   UNL     1      52.522  21.377  18.521  0.00  0.00    +0.381 HD
ENDBRANCH  15  16
ENDBRANCH  12  13
ENDBRANCH  11  12
TORSDOF 4
ENDMDL
MODEL 6
REMARK VINA RESULT:      -5.6      2.518      3.912
REMARK  Name = ZINC95486145
REMARK  7 active torsions:
REMARK  status: ('A' for Active; 'I' for Inactive)
REMARK    1  A    between atoms: C1_1  and  C2_2
REMARK    2  A    between atoms: C5_5  and  O5_29
REMARK    3  A    between atoms: C6_7  and  C19_27
REMARK    4  A    between atoms: C6_7  and  C20_28
REMARK    5  A    between atoms: C11_13  and  C12_15
REMARK    6  A    between atoms: C12_15  and  C13_16
REMARK    7  A    between atoms: C15_18  and  O3_24
REMARK                            x       y       z     vdW  Elec       q    Type
REMARK                         _______ _______ _______ _____ _____    ______ ____
ROOT
ATOM      1  C   UNL     1      46.321  14.924  18.844  0.00  0.00    +0.030 C 
ATOM      2  C   UNL     1      46.241  16.409  19.231  0.00  0.00    -0.031 C 
ATOM      3  C   UNL     1      45.932  17.219  17.971  0.00  0.00    +0.027 C 
ATOM      4  C   UNL     1      47.104  17.110  16.993  0.00  0.00    -0.013 C 
ATOM      5  C   UNL     1      48.345  17.725  17.630  0.00  0.00    +0.168 C 
ATOM      8  C   UNL     1      48.713  17.032  18.940  0.00  0.00    -0.041 C 
ATOM      9  C   UNL     1      49.391  15.695  18.645  0.00  0.00    +0.035 C 
ATOM     10  C   UNL     1      49.764  17.933  19.633  0.00  0.00    +0.021 C 
ATOM     11  C   UNL     1      45.075  16.548  20.222  0.00  0.00    +0.035 C 
ATOM     22  C   UNL     1      45.421  15.837  21.532  0.00  0.00    +0.025 C 
ATOM     23  C   UNL     1      44.853  14.440  21.771  0.00  0.00    +0.180 C 
ATOM     24  O   UNL     1      44.341  15.592  22.441  0.00  0.00    -0.338 OA
ATOM     25  C   UNL     1      46.777  16.181  22.147  0.00  0.00    +0.046 C 
ATOM     26  C   UNL     1      47.877  16.023  21.090  0.00  0.00    +0.038 C 
ATOM     27  C   UNL     1      47.528  16.889  19.878  0.00  0.00    +0.009 C 
ENDROOT
BRANCH   5   6
ATOM      6  O   UNL     1      49.446  17.626  16.720  0.00  0.00    -0.564 OA
ATOM      7  H   UNL     1      49.615  16.728  16.403  0.00  0.00    +0.375 HD
ENDBRANCH   5   6
BRANCH  11  12
ATOM     12  C   UNL     1      44.742  18.009  20.505  0.00  0.00    +0.077 C 
BRANCH  12  13
ATOM     13  C   UNL     1      43.248  18.202  20.457  0.00  0.00    +0.152 C 
ATOM     14  C   UNL     1      42.735  19.277  19.862  0.00  0.00    -0.242 C 
ATOM     15  C   UNL     1      41.266  19.644  19.722  0.00  0.00    +0.200 C 
ATOM     18  C   UNL     1      41.311  20.990  18.969  0.00  0.00    +0.231 C 
ATOM     19  O   UNL     1      42.662  21.453  19.132  0.00  0.00    -0.336 OA
ATOM     20  C   UNL     1      43.470  20.375  19.203  0.00  0.00    +0.520 C 
ATOM     21  O   UNL     1      44.611  20.317  18.790  0.00  0.00    -0.445 OA
BRANCH  15  16
ATOM     16  O   UNL     1      40.659  19.799  21.006  0.00  0.00    -0.540 OA
ATOM     17  H   UNL     1      39.864  20.350  21.000  0.00  0.00    +0.381 HD
ENDBRANCH  15  16
ENDBRANCH  12  13
ENDBRANCH  11  12
TORSDOF 4
ENDMDL
MODEL 7
REMARK VINA RESULT:      -5.6      2.981      6.195
REMARK  Name = ZINC95486145
REMARK  7 active torsions:
REMARK  status: ('A' for Active; 'I' for Inactive)
REMARK    1  A    between atoms: C1_1  and  C2_2
REMARK    2  A    between atoms: C5_5  and  O5_29
REMARK    3  A    between atoms: C6_7  and  C19_27
REMARK    4  A    between atoms: C6_7  and  C20_28
REMARK    5  A    between atoms: C11_13  and  C12_15
REMARK    6  A    between atoms: C12_15  and  C13_16
REMARK    7  A    between atoms: C15_18  and  O3_24
REMARK                            x       y       z     vdW  Elec       q    Type
REMARK                         _______ _______ _______ _____ _____    ______ ____
ROOT
ATOM      1  C   UNL     1      45.634  17.028  19.078  0.00  0.00    +0.030 C 
ATOM      2  C   UNL     1      47.124  16.827  18.760  0.00  0.00    -0.031 C 
ATOM      3  C   UNL     1      47.335  17.072  17.266  0.00  0.00    +0.027 C 
ATOM      4  C   UNL     1      46.594  16.002  16.462  0.00  0.00    -0.013 C 
ATOM      5  C   UNL     1      47.190  14.635  16.782  0.00  0.00    +0.168 C 
ATOM      8  C   UNL     1      47.092  14.308  18.270  0.00  0.00    -0.041 C 
ATOM      9  C   UNL     1      45.664  13.891  18.616  0.00  0.00    +0.035 C 
ATOM     10  C   UNL     1      47.999  13.076  18.509  0.00  0.00    +0.021 C 
ATOM     11  C   UNL     1      47.897  17.886  19.563  0.00  0.00    +0.035 C 
ATOM     22  C   UNL     1      47.788  17.583  21.059  0.00  0.00    +0.025 C 
ATOM     23  C   UNL     1      46.770  18.366  21.884  0.00  0.00    +0.180 C 
ATOM     24  O   UNL     1      48.172  18.629  21.960  0.00  0.00    -0.338 OA
ATOM     25  C   UNL     1      48.115  16.152  21.482  0.00  0.00    +0.046 C 
ATOM     26  C   UNL     1      47.309  15.166  20.628  0.00  0.00    +0.038 C 
ATOM     27  C   UNL     1      47.597  15.438  19.150  0.00  0.00    +0.009 C 
ENDROOT
BRANCH   5   6
ATOM      6  O   UNL     1      46.500  13.628  16.033  0.00  0.00    -0.564 OA
ATOM      7  H   UNL     1      45.577  13.844  15.841  0.00  0.00    +0.375 HD
ENDBRANCH   5   6
BRANCH  11  12
ATOM     12  C   UNL     1      49.367  17.944  19.158  0.00  0.00    +0.077 C 
BRANCH  12  13
ATOM     13  C   UNL     1      49.774  19.380  18.950  0.00  0.00    +0.152 C 
ATOM     14  C   UNL     1      50.593  19.701  17.951  0.00  0.00    -0.242 C 
ATOM     15  C   UNL     1      51.116  21.083  17.592  0.00  0.00    +0.200 C 
ATOM     18  C   UNL     1      52.022  20.810  16.373  0.00  0.00    +0.231 C 
ATOM     19  O   UNL     1      52.277  19.395  16.419  0.00  0.00    -0.336 OA
ATOM     20  C   UNL     1      51.196  18.792  16.957  0.00  0.00    +0.520 C 
ATOM     21  O   UNL     1      50.786  17.685  16.667  0.00  0.00    -0.445 OA
BRANCH  15  16
ATOM     16  O   UNL     1      51.869  21.635  18.673  0.00  0.00    -0.540 OA
ATOM     17  H   UNL     1      51.628  21.282  19.540  0.00  0.00    +0.381 HD
ENDBRANCH  15  16
ENDBRANCH  12  13
ENDBRANCH  11  12
TORSDOF 4
ENDMDL
MODEL 8
REMARK VINA RESULT:      -5.5      1.863      3.051
REMARK  Name = ZINC95486145
REMARK  7 active torsions:
REMARK  status: ('A' for Active; 'I' for Inactive)
REMARK    1  A    between atoms: C1_1  and  C2_2
REMARK    2  A    between atoms: C5_5  and  O5_29
REMARK    3  A    between atoms: C6_7  and  C19_27
REMARK    4  A    between atoms: C6_7  and  C20_28
REMARK    5  A    between atoms: C11_13  and  C12_15
REMARK    6  A    between atoms: C12_15  and  C13_16
REMARK    7  A    between atoms: C15_18  and  O3_24
REMARK                            x       y       z     vdW  Elec       q    Type
REMARK                         _______ _______ _______ _____ _____    ______ ____
ROOT
ATOM      1  C   UNL     1      49.999  18.509  17.387  0.00  0.00    +0.030 C 
ATOM      2  C   UNL     1      49.550  19.294  18.630  0.00  0.00    -0.031 C 
ATOM      3  C   UNL     1      49.614  20.787  18.306  0.00  0.00    +0.027 C 
ATOM      4  C   UNL     1      51.068  21.196  18.062  0.00  0.00    -0.013 C 
ATOM      5  C   UNL     1      51.868  20.980  19.341  0.00  0.00    +0.168 C 
ATOM      8  C   UNL     1      51.823  19.524  19.800  0.00  0.00    -0.041 C 
ATOM      9  C   UNL     1      52.760  18.681  18.938  0.00  0.00    +0.035 C 
ATOM     10  C   UNL     1      52.384  19.500  21.243  0.00  0.00    +0.021 C 
ATOM     11  C   UNL     1      48.091  18.896  18.905  0.00  0.00    +0.035 C 
ATOM     22  C   UNL     1      48.028  17.431  19.343  0.00  0.00    +0.025 C 
ATOM     23  C   UNL     1      47.637  16.381  18.307  0.00  0.00    +0.180 C 
ATOM     24  O   UNL     1      46.738  16.807  19.332  0.00  0.00    -0.338 OA
ATOM     25  C   UNL     1      48.984  17.021  20.463  0.00  0.00    +0.046 C 
ATOM     26  C   UNL     1      50.410  17.463  20.110  0.00  0.00    +0.038 C 
ATOM     27  C   UNL     1      50.410  18.969  19.839  0.00  0.00    +0.009 C 
ENDROOT
BRANCH   5   6
ATOM      6  O   UNL     1      53.231  21.360  19.120  0.00  0.00    -0.564 OA
ATOM      7  H   UNL     1      53.809  20.626  18.871  0.00  0.00    +0.375 HD
ENDBRANCH   5   6
BRANCH  11  12
ATOM     12  C   UNL     1      47.454  19.778  19.974  0.00  0.00    +0.077 C 
BRANCH  12  13
ATOM     13  C   UNL     1      46.158  20.343  19.452  0.00  0.00    +0.152 C 
ATOM     14  C   UNL     1      45.001  19.942  19.974  0.00  0.00    -0.242 C 
ATOM     15  C   UNL     1      43.603  20.391  19.576  0.00  0.00    +0.200 C 
ATOM     18  C   UNL     1      42.691  19.569  20.513  0.00  0.00    +0.231 C 
ATOM     19  O   UNL     1      43.529  18.503  20.992  0.00  0.00    -0.336 OA
ATOM     20  C   UNL     1      44.796  18.962  21.058  0.00  0.00    +0.520 C 
ATOM     21  O   UNL     1      45.628  18.626  21.877  0.00  0.00    -0.445 OA
BRANCH  15  16
ATOM     16  O   UNL     1      43.342  20.076  18.208  0.00  0.00    -0.540 OA
ATOM     17  H   UNL     1      42.401  20.008  17.992  0.00  0.00    +0.381 HD
ENDBRANCH  15  16
ENDBRANCH  12  13
ENDBRANCH  11  12
TORSDOF 4
ENDMDL
MODEL 9
REMARK VINA RESULT:      -5.5      3.568      6.991
REMARK  Name = ZINC95486145
REMARK  7 active torsions:
REMARK  status: ('A' for Active; 'I' for Inactive)
REMARK    1  A    between atoms: C1_1  and  C2_2
REMARK    2  A    between atoms: C5_5  and  O5_29
REMARK    3  A    between atoms: C6_7  and  C19_27
REMARK    4  A    between atoms: C6_7  and  C20_28
REMARK    5  A    between atoms: C11_13  and  C12_15
REMARK    6  A    between atoms: C12_15  and  C13_16
REMARK    7  A    between atoms: C15_18  and  O3_24
REMARK                            x       y       z     vdW  Elec       q    Type
REMARK                         _______ _______ _______ _____ _____    ______ ____
ROOT
ATOM      1  C   UNL     1      46.836  18.755  20.864  0.00  0.00    +0.030 C 
ATOM      2  C   UNL     1      46.019  18.142  19.716  0.00  0.00    -0.031 C 
ATOM      3  C   UNL     1      46.246  18.985  18.460  0.00  0.00    +0.027 C 
ATOM      4  C   UNL     1      45.672  20.387  18.674  0.00  0.00    -0.013 C 
ATOM      5  C   UNL     1      44.165  20.284  18.878  0.00  0.00    +0.168 C 
ATOM      8  C   UNL     1      43.814  19.405  20.077  0.00  0.00    -0.041 C 
ATOM      9  C   UNL     1      44.049  20.180  21.372  0.00  0.00    +0.035 C 
ATOM     10  C   UNL     1      42.294  19.122  19.984  0.00  0.00    +0.021 C 
ATOM     11  C   UNL     1      46.569  16.726  19.484  0.00  0.00    +0.035 C 
ATOM     22  C   UNL     1      46.244  15.841  20.689  0.00  0.00    +0.025 C 
ATOM     23  C   UNL     1      47.338  15.599  21.726  0.00  0.00    +0.180 C 
ATOM     24  O   UNL     1      46.948  14.597  20.786  0.00  0.00    -0.338 OA
ATOM     25  C   UNL     1      44.791  15.851  21.160  0.00  0.00    +0.046 C 
ATOM     26  C   UNL     1      44.324  17.298  21.358  0.00  0.00    +0.038 C 
ATOM     27  C   UNL     1      44.540  18.072  20.056  0.00  0.00    +0.009 C 
ENDROOT
BRANCH   5   6
ATOM      6  O   UNL     1      43.621  21.593  19.080  0.00  0.00    -0.564 OA
ATOM      7  H   UNL     1      43.414  21.795  20.002  0.00  0.00    +0.375 HD
ENDBRANCH   5   6
BRANCH  11  12
ATOM     12  C   UNL     1      45.998  16.096  18.217  0.00  0.00    +0.077 C 
BRANCH  12  13
ATOM     13  C   UNL     1      47.128  15.667  17.317  0.00  0.00    +0.152 C 
ATOM     14  C   UNL     1      47.331  14.374  17.076  0.00  0.00    -0.242 C 
ATOM     15  C   UNL     1      48.415  13.754  16.207  0.00  0.00    +0.200 C 
ATOM     18  C   UNL     1      48.146  12.240  16.338  0.00  0.00    +0.231 C 
ATOM     19  O   UNL     1      47.314  12.117  17.504  0.00  0.00    -0.336 OA
ATOM     20  C   UNL     1      46.557  13.230  17.598  0.00  0.00    +0.520 C 
ATOM     21  O   UNL     1      45.425  13.282  18.038  0.00  0.00    -0.445 OA
BRANCH  15  16
ATOM     16  O   UNL     1      49.712  14.085  16.705  0.00  0.00    -0.540 OA
ATOM     17  H   UNL     1      50.395  14.131  16.022  0.00  0.00    +0.381 HD
ENDBRANCH  15  16
ENDBRANCH  12  13
ENDBRANCH  11  12
TORSDOF 4
ENDMDL
