MODEL 1
REMARK VINA RESULT:      -7.0      0.000      0.000
REMARK  Name = ZINC95485889
REMARK  16 active torsions:
REMARK  status: ('A' for Active; 'I' for Inactive)
REMARK    1  A    between atoms: C1_1  and  N1_2
REMARK    2  A    between atoms: C6_7  and  O6_49
REMARK    3  A    between atoms: C7_8  and  C18_21
REMARK    4  A    between atoms: C10_11  and  C11_13
REMARK    5  A    between atoms: C11_13  and  C12_14
REMARK    6  A    between atoms: C15_17  and  O1_20
REMARK    7  A    between atoms: C18_21  and  C19_22
REMARK    8  A    between atoms: C23_26  and  O3_30
REMARK    9  A    between atoms: C24_27  and  O2_28
REMARK   10  A    between atoms: O2_28  and  C25_29
REMARK   11  A    between atoms: O3_30  and  C26_31
REMARK   12  A    between atoms: C30_36  and  O5_47
REMARK   13  A    between atoms: C31_37  and  O4_46
REMARK   14  A    between atoms: N2_44  and  C37_45
REMARK   15  A    between atoms: O5_47  and  C38_48
REMARK   16  A    between atoms: O6_49  and  C39_50
REMARK                            x       y       z     vdW  Elec       q    Type
REMARK                         _______ _______ _______ _____ _____    ______ ____
ROOT
ATOM     12  C   UNL     1      46.971  17.000  20.424  0.00  0.00    -0.061 A 
ATOM     13  C   UNL     1      45.951  17.952  20.417  0.00  0.00    -0.050 A 
ATOM     14  C   UNL     1      45.378  18.336  19.237  0.00  0.00    -0.113 A 
ATOM     15  C   UNL     1      44.305  19.363  19.076  0.00  0.00    +0.298 C 
ATOM     16  C   UNL     1      44.545  20.658  19.775  0.00  0.00    -0.101 A 
ATOM     17  C   UNL     1      44.817  21.837  19.118  0.00  0.00    -0.011 A 
ATOM     18  C   UNL     1      45.001  23.002  19.848  0.00  0.00    +0.125 A 
ATOM     21  C   UNL     1      44.910  22.980  21.238  0.00  0.00    +0.115 A 
ATOM     24  C   UNL     1      44.645  21.785  21.896  0.00  0.00    +0.060 A 
ATOM     25  C   UNL     1      44.476  20.639  21.163  0.00  0.00    -0.105 A 
ATOM     26  C   UNL     1      44.251  19.282  21.764  0.00  0.00    +0.074 C 
ATOM     27  C   UNL     1      43.090  18.598  21.059  0.00  0.00    +0.259 C 
ATOM     28  N   UNL     1      43.067  18.782  19.630  0.00  0.00    -0.377 N 
ATOM     29  H   UNL     1      42.913  17.879  19.206  0.00  0.00    +0.425 HD
ATOM     30  C   UNL     1      41.938  19.658  19.285  0.00  0.00    +0.317 C 
ATOM     31  C   UNL     1      45.824  17.749  18.047  0.00  0.00    -0.054 A 
ATOM     32  C   UNL     1      46.830  16.806  18.047  0.00  0.00    +0.117 A 
ATOM     35  C   UNL     1      45.535  18.494  21.746  0.00  0.00    +0.105 C 
ATOM     36  C   UNL     1      47.420  16.431  19.250  0.00  0.00    +0.123 A 
ENDROOT
BRANCH  18  19
ATOM     19  O   UNL     1      45.271  24.169  19.205  0.00  0.00    -0.294 OA
ATOM     20  C   UNL     1      44.164  24.860  18.624  0.00  0.00    +0.250 C 
ENDBRANCH  18  19
BRANCH  21  22
ATOM     22  O   UNL     1      45.081  24.126  21.949  0.00  0.00    -0.477 OA
ATOM     23  H   UNL     1      45.998  24.431  21.992  0.00  0.00    +0.395 HD
ENDBRANCH  21  22
BRANCH  32  33
ATOM     33  O   UNL     1      47.246  16.250  16.878  0.00  0.00    -0.297 OA
ATOM     34  C   UNL     1      46.611  15.034  16.474  0.00  0.00    +0.245 C 
ENDBRANCH  32  33
BRANCH  36  37
ATOM     37  O   UNL     1      48.421  15.511  19.270  0.00  0.00    -0.295 OA
ATOM     38  C   UNL     1      48.061  14.165  19.583  0.00  0.00    +0.229 C 
ENDBRANCH  36  37
BRANCH  12  11
ATOM     11  C   UNL     1      47.596  16.593  21.734  0.00  0.00    +0.146 C 
BRANCH  11  10
ATOM      1  C   UNL     1      52.327  22.184  20.775  0.00  0.00    +0.191 C 
ATOM      2  N   UNL     1      52.110  20.750  21.003  0.00  0.00    -0.524 NA
ATOM      3  C   UNL     1      52.946  20.260  22.112  0.00  0.00    +0.176 C 
ATOM      4  C   UNL     1      52.962  18.732  22.068  0.00  0.00    +0.085 C 
ATOM      5  C   UNL     1      51.553  18.205  21.977  0.00  0.00    -0.015 A 
ATOM      6  C   UNL     1      51.327  16.871  22.282  0.00  0.00    -0.084 A 
ATOM      7  C   UNL     1      50.048  16.345  22.206  0.00  0.00    +0.151 A 
ATOM     10  C   UNL     1      48.991  17.158  21.822  0.00  0.00    -0.122 A 
ATOM     39  C   UNL     1      49.220  18.484  21.521  0.00  0.00    +0.047 A 
ATOM     40  C   UNL     1      50.501  19.012  21.600  0.00  0.00    -0.103 A 
ATOM     41  C   UNL     1      50.697  20.469  21.270  0.00  0.00    +0.187 C 
BRANCH   7   8
ATOM      8  O   UNL     1      49.829  15.037  22.505  0.00  0.00    -0.288 OA
ATOM      9  C   UNL     1      50.890  14.121  22.224  0.00  0.00    +0.232 C 
ENDBRANCH   7   8
BRANCH  41  42
ATOM     42  C   UNL     1      49.870  20.822  20.032  0.00  0.00    +0.076 C 
BRANCH  42  43
ATOM     43  C   UNL     1      50.549  20.277  18.801  0.00  0.00    -0.061 A 
ATOM     44  C   UNL     1      50.581  18.914  18.579  0.00  0.00    +0.050 A 
ATOM     45  C   UNL     1      51.203  18.411  17.451  0.00  0.00    -0.021 A 
ATOM     46  C   UNL     1      51.794  19.278  16.543  0.00  0.00    +0.098 A 
ATOM     49  C   UNL     1      51.758  20.646  16.769  0.00  0.00    -0.036 A 
ATOM     50  C   UNL     1      51.130  21.143  17.895  0.00  0.00    +0.026 A 
BRANCH  46  47
ATOM     47  O   UNL     1      52.406  18.786  15.434  0.00  0.00    -0.506 OA
ATOM     48  H   UNL     1      52.046  19.126  14.603  0.00  0.00    +0.389 HD
ENDBRANCH  46  47
ENDBRANCH  42  43
ENDBRANCH  41  42
ENDBRANCH  11  10
ENDBRANCH  12  11
TORSDOF 10
ENDMDL
MODEL 2
REMARK VINA RESULT:      -6.9      2.748      7.044
REMARK  Name = ZINC95485889
REMARK  16 active torsions:
REMARK  status: ('A' for Active; 'I' for Inactive)
REMARK    1  A    between atoms: C1_1  and  N1_2
REMARK    2  A    between atoms: C6_7  and  O6_49
REMARK    3  A    between atoms: C7_8  and  C18_21
REMARK    4  A    between atoms: C10_11  and  C11_13
REMARK    5  A    between atoms: C11_13  and  C12_14
REMARK    6  A    between atoms: C15_17  and  O1_20
REMARK    7  A    between atoms: C18_21  and  C19_22
REMARK    8  A    between atoms: C23_26  and  O3_30
REMARK    9  A    between atoms: C24_27  and  O2_28
REMARK   10  A    between atoms: O2_28  and  C25_29
REMARK   11  A    between atoms: O3_30  and  C26_31
REMARK   12  A    between atoms: C30_36  and  O5_47
REMARK   13  A    between atoms: C31_37  and  O4_46
REMARK   14  A    between atoms: N2_44  and  C37_45
REMARK   15  A    between atoms: O5_47  and  C38_48
REMARK   16  A    between atoms: O6_49  and  C39_50
REMARK                            x       y       z     vdW  Elec       q    Type
REMARK                         _______ _______ _______ _____ _____    ______ ____
ROOT
ATOM     12  C   UNL     1      51.104  16.379  18.686  0.00  0.00    -0.061 A 
ATOM     13  C   UNL     1      50.762  17.669  19.094  0.00  0.00    -0.050 A 
ATOM     14  C   UNL     1      50.828  18.011  20.416  0.00  0.00    -0.113 A 
ATOM     15  C   UNL     1      50.463  19.337  20.998  0.00  0.00    +0.298 C 
ATOM     16  C   UNL     1      49.144  19.885  20.571  0.00  0.00    -0.101 A 
ATOM     17  C   UNL     1      48.057  19.990  21.410  0.00  0.00    -0.011 A 
ATOM     18  C   UNL     1      46.874  20.537  20.933  0.00  0.00    +0.125 A 
ATOM     21  C   UNL     1      46.786  20.979  19.615  0.00  0.00    +0.115 A 
ATOM     24  C   UNL     1      47.884  20.862  18.771  0.00  0.00    +0.060 A 
ATOM     25  C   UNL     1      49.043  20.309  19.251  0.00  0.00    -0.105 A 
ATOM     26  C   UNL     1      50.268  20.071  18.418  0.00  0.00    +0.074 C 
ATOM     27  C   UNL     1      51.496  20.580  19.158  0.00  0.00    +0.259 C 
ATOM     28  N   UNL     1      51.501  20.296  20.571  0.00  0.00    -0.377 N 
ATOM     29  H   UNL     1      52.407  19.919  20.806  0.00  0.00    +0.425 HD
ATOM     30  C   UNL     1      51.314  21.554  21.306  0.00  0.00    +0.317 C 
ATOM     31  C   UNL     1      51.256  17.052  21.342  0.00  0.00    -0.054 A 
ATOM     32  C   UNL     1      51.597  15.776  20.945  0.00  0.00    +0.117 A 
ATOM     35  C   UNL     1      50.345  18.620  18.020  0.00  0.00    +0.105 C 
ATOM     36  C   UNL     1      51.513  15.429  19.600  0.00  0.00    +0.123 A 
ENDROOT
BRANCH  18  19
ATOM     19  O   UNL     1      45.797  20.643  21.756  0.00  0.00    -0.294 OA
ATOM     20  C   UNL     1      45.669  21.853  22.505  0.00  0.00    +0.250 C 
ENDBRANCH  18  19
BRANCH  21  22
ATOM     22  O   UNL     1      45.629  21.525  19.156  0.00  0.00    -0.477 OA
ATOM     23  H   UNL     1      45.219  21.031  18.433  0.00  0.00    +0.395 HD
ENDBRANCH  21  22
BRANCH  32  33
ATOM     33  O   UNL     1      52.009  14.862  21.863  0.00  0.00    -0.297 OA
ATOM     34  C   UNL     1      50.997  14.069  22.489  0.00  0.00    +0.245 C 
ENDBRANCH  32  33
BRANCH  36  37
ATOM     37  O   UNL     1      51.834  14.173  19.190  0.00  0.00    -0.295 OA
ATOM     38  C   UNL     1      53.223  13.844  19.133  0.00  0.00    +0.229 C 
ENDBRANCH  36  37
BRANCH  12  11
ATOM     11  C   UNL     1      51.019  16.017  17.226  0.00  0.00    +0.146 C 
BRANCH  11  10
ATOM      1  C   UNL     1      44.497  12.901  18.752  0.00  0.00    +0.191 C 
ATOM      2  N   UNL     1      45.852  12.769  18.202  0.00  0.00    -0.524 NA
ATOM      3  C   UNL     1      45.823  12.132  16.876  0.00  0.00    +0.176 C 
ATOM      4  C   UNL     1      47.243  11.690  16.519  0.00  0.00    +0.085 C 
ATOM      5  C   UNL     1      48.203  12.834  16.717  0.00  0.00    -0.015 A 
ATOM      6  C   UNL     1      49.453  12.757  16.121  0.00  0.00    -0.084 A 
ATOM      7  C   UNL     1      50.368  13.785  16.282  0.00  0.00    +0.151 A 
ATOM     10  C   UNL     1      50.029  14.895  17.043  0.00  0.00    -0.122 A 
ATOM     39  C   UNL     1      48.785  14.969  17.632  0.00  0.00    +0.047 A 
ATOM     40  C   UNL     1      47.867  13.940  17.469  0.00  0.00    -0.103 A 
ATOM     41  C   UNL     1      46.517  14.073  18.125  0.00  0.00    +0.187 C 
BRANCH   7   8
ATOM      8  O   UNL     1      51.592  13.707  15.697  0.00  0.00    -0.288 OA
ATOM      9  C   UNL     1      51.638  13.230  14.350  0.00  0.00    +0.232 C 
ENDBRANCH   7   8
BRANCH  41  42
ATOM     42  C   UNL     1      46.695  14.634  19.537  0.00  0.00    +0.076 C 
BRANCH  42  43
ATOM     43  C   UNL     1      45.864  15.882  19.692  0.00  0.00    -0.061 A 
ATOM     44  C   UNL     1      45.106  16.067  20.833  0.00  0.00    +0.050 A 
ATOM     45  C   UNL     1      44.343  17.211  20.977  0.00  0.00    -0.021 A 
ATOM     46  C   UNL     1      44.340  18.171  19.976  0.00  0.00    +0.098 A 
ATOM     49  C   UNL     1      45.102  17.982  18.834  0.00  0.00    -0.036 A 
ATOM     50  C   UNL     1      45.868  16.840  18.697  0.00  0.00    +0.026 A 
BRANCH  46  47
ATOM     47  O   UNL     1      43.590  19.297  20.116  0.00  0.00    -0.506 OA
ATOM     48  H   UNL     1      42.910  19.234  20.800  0.00  0.00    +0.389 HD
ENDBRANCH  46  47
ENDBRANCH  42  43
ENDBRANCH  41  42
ENDBRANCH  11  10
ENDBRANCH  12  11
TORSDOF 10
ENDMDL
MODEL 3
REMARK VINA RESULT:      -6.8      3.463      7.964
REMARK  Name = ZINC95485889
REMARK  16 active torsions:
REMARK  status: ('A' for Active; 'I' for Inactive)
REMARK    1  A    between atoms: C1_1  and  N1_2
REMARK    2  A    between atoms: C6_7  and  O6_49
REMARK    3  A    between atoms: C7_8  and  C18_21
REMARK    4  A    between atoms: C10_11  and  C11_13
REMARK    5  A    between atoms: C11_13  and  C12_14
REMARK    6  A    between atoms: C15_17  and  O1_20
REMARK    7  A    between atoms: C18_21  and  C19_22
REMARK    8  A    between atoms: C23_26  and  O3_30
REMARK    9  A    between atoms: C24_27  and  O2_28
REMARK   10  A    between atoms: O2_28  and  C25_29
REMARK   11  A    between atoms: O3_30  and  C26_31
REMARK   12  A    between atoms: C30_36  and  O5_47
REMARK   13  A    between atoms: C31_37  and  O4_46
REMARK   14  A    between atoms: N2_44  and  C37_45
REMARK   15  A    between atoms: O5_47  and  C38_48
REMARK   16  A    between atoms: O6_49  and  C39_50
REMARK                            x       y       z     vdW  Elec       q    Type
REMARK                         _______ _______ _______ _____ _____    ______ ____
ROOT
ATOM     12  C   UNL     1      50.255  14.367  20.106  0.00  0.00    -0.061 A 
ATOM     13  C   UNL     1      50.260  13.434  19.068  0.00  0.00    -0.050 A 
ATOM     14  C   UNL     1      51.191  13.520  18.071  0.00  0.00    -0.113 A 
ATOM     15  C   UNL     1      51.295  12.616  16.887  0.00  0.00    +0.298 C 
ATOM     16  C   UNL     1      50.024  12.382  16.144  0.00  0.00    -0.101 A 
ATOM     17  C   UNL     1      49.780  12.875  14.881  0.00  0.00    -0.011 A 
ATOM     18  C   UNL     1      48.576  12.586  14.254  0.00  0.00    +0.125 A 
ATOM     21  C   UNL     1      47.621  11.802  14.895  0.00  0.00    +0.115 A 
ATOM     24  C   UNL     1      47.869  11.315  16.173  0.00  0.00    +0.060 A 
ATOM     25  C   UNL     1      49.057  11.617  16.787  0.00  0.00    -0.105 A 
ATOM     26  C   UNL     1      49.409  11.204  18.186  0.00  0.00    +0.074 C 
ATOM     27  C   UNL     1      50.810  10.611  18.207  0.00  0.00    +0.259 C 
ATOM     28  N   UNL     1      51.765  11.308  17.383  0.00  0.00    -0.377 N 
ATOM     29  H   UNL     1      52.599  11.450  17.933  0.00  0.00    +0.425 HD
ATOM     30  C   UNL     1      52.104  10.460  16.232  0.00  0.00    +0.317 C 
ATOM     31  C   UNL     1      52.142  14.547  18.121  0.00  0.00    -0.054 A 
ATOM     32  C   UNL     1      52.145  15.470  19.145  0.00  0.00    +0.117 A 
ATOM     35  C   UNL     1      49.217  12.366  19.127  0.00  0.00    +0.105 C 
ATOM     36  C   UNL     1      51.184  15.387  20.148  0.00  0.00    +0.123 A 
ENDROOT
BRANCH  18  19
ATOM     19  O   UNL     1      48.329  13.071  13.007  0.00  0.00    -0.294 OA
ATOM     20  C   UNL     1      49.453  13.233  12.140  0.00  0.00    +0.250 C 
ENDBRANCH  18  19
BRANCH  21  22
ATOM     22  O   UNL     1      46.448  11.512  14.271  0.00  0.00    -0.477 OA
ATOM     23  H   UNL     1      46.424  10.634  13.865  0.00  0.00    +0.395 HD
ENDBRANCH  21  22
BRANCH  32  33
ATOM     33  O   UNL     1      53.078  16.459  19.172  0.00  0.00    -0.297 OA
ATOM     34  C   UNL     1      54.423  16.075  19.469  0.00  0.00    +0.245 C 
ENDBRANCH  32  33
BRANCH  36  37
ATOM     37  O   UNL     1      51.163  16.295  21.160  0.00  0.00    -0.295 OA
ATOM     38  C   UNL     1      51.974  16.014  22.302  0.00  0.00    +0.229 C 
ENDBRANCH  36  37
BRANCH  12  11
ATOM     11  C   UNL     1      49.217  14.262  21.193  0.00  0.00    +0.146 C 
BRANCH  11  10
ATOM      1  C   UNL     1      46.425  20.557  18.518  0.00  0.00    +0.191 C 
ATOM      2  N   UNL     1      46.221  19.317  19.278  0.00  0.00    -0.524 NA
ATOM      3  C   UNL     1      45.013  18.611  18.820  0.00  0.00    +0.176 C 
ATOM      4  C   UNL     1      44.647  17.552  19.860  0.00  0.00    +0.085 C 
ATOM      5  C   UNL     1      45.856  16.715  20.190  0.00  0.00    -0.015 A 
ATOM      6  C   UNL     1      45.662  15.497  20.825  0.00  0.00    -0.084 A 
ATOM      7  C   UNL     1      46.746  14.699  21.151  0.00  0.00    +0.151 A 
ATOM     10  C   UNL     1      48.030  15.123  20.839  0.00  0.00    -0.122 A 
ATOM     39  C   UNL     1      48.219  16.333  20.206  0.00  0.00    +0.047 A 
ATOM     40  C   UNL     1      47.132  17.131  19.877  0.00  0.00    -0.103 A 
ATOM     41  C   UNL     1      47.391  18.440  19.177  0.00  0.00    +0.187 C 
BRANCH   7   8
ATOM      8  O   UNL     1      46.553  13.507  21.774  0.00  0.00    -0.288 OA
ATOM      9  C   UNL     1      45.252  13.259  22.311  0.00  0.00    +0.232 C 
ENDBRANCH   7   8
BRANCH  41  42
ATOM     42  C   UNL     1      48.595  19.129  19.823  0.00  0.00    +0.076 C 
BRANCH  42  43
ATOM     43  C   UNL     1      49.613  19.461  18.763  0.00  0.00    -0.061 A 
ATOM     44  C   UNL     1      50.078  20.756  18.635  0.00  0.00    +0.050 A 
ATOM     45  C   UNL     1      51.012  21.064  17.664  0.00  0.00    -0.021 A 
ATOM     46  C   UNL     1      51.482  20.070  16.817  0.00  0.00    +0.098 A 
ATOM     49  C   UNL     1      51.014  18.771  16.949  0.00  0.00    -0.036 A 
ATOM     50  C   UNL     1      50.085  18.468  17.925  0.00  0.00    +0.026 A 
BRANCH  46  47
ATOM     47  O   UNL     1      52.401  20.369  15.861  0.00  0.00    -0.506 OA
ATOM     48  H   UNL     1      52.017  20.579  14.999  0.00  0.00    +0.389 HD
ENDBRANCH  46  47
ENDBRANCH  42  43
ENDBRANCH  41  42
ENDBRANCH  11  10
ENDBRANCH  12  11
TORSDOF 10
ENDMDL
MODEL 4
REMARK VINA RESULT:      -6.2      3.205      6.003
REMARK  Name = ZINC95485889
REMARK  16 active torsions:
REMARK  status: ('A' for Active; 'I' for Inactive)
REMARK    1  A    between atoms: C1_1  and  N1_2
REMARK    2  A    between atoms: C6_7  and  O6_49
REMARK    3  A    between atoms: C7_8  and  C18_21
REMARK    4  A    between atoms: C10_11  and  C11_13
REMARK    5  A    between atoms: C11_13  and  C12_14
REMARK    6  A    between atoms: C15_17  and  O1_20
REMARK    7  A    between atoms: C18_21  and  C19_22
REMARK    8  A    between atoms: C23_26  and  O3_30
REMARK    9  A    between atoms: C24_27  and  O2_28
REMARK   10  A    between atoms: O2_28  and  C25_29
REMARK   11  A    between atoms: O3_30  and  C26_31
REMARK   12  A    between atoms: C30_36  and  O5_47
REMARK   13  A    between atoms: C31_37  and  O4_46
REMARK   14  A    between atoms: N2_44  and  C37_45
REMARK   15  A    between atoms: O5_47  and  C38_48
REMARK   16  A    between atoms: O6_49  and  C39_50
REMARK                            x       y       z     vdW  Elec       q    Type
REMARK                         _______ _______ _______ _____ _____    ______ ____
ROOT
ATOM     12  C   UNL     1      50.411  17.534  19.970  0.00  0.00    -0.061 A 
ATOM     13  C   UNL     1      49.149  17.296  19.424  0.00  0.00    -0.050 A 
ATOM     14  C   UNL     1      48.778  17.908  18.259  0.00  0.00    -0.113 A 
ATOM     15  C   UNL     1      47.454  17.772  17.580  0.00  0.00    +0.298 C 
ATOM     16  C   UNL     1      46.262  17.957  18.456  0.00  0.00    -0.101 A 
ATOM     17  C   UNL     1      45.419  19.042  18.373  0.00  0.00    -0.011 A 
ATOM     18  C   UNL     1      44.316  19.120  19.212  0.00  0.00    +0.125 A 
ATOM     21  C   UNL     1      44.061  18.105  20.130  0.00  0.00    +0.115 A 
ATOM     24  C   UNL     1      44.921  17.016  20.216  0.00  0.00    +0.060 A 
ATOM     25  C   UNL     1      46.013  16.957  19.390  0.00  0.00    -0.105 A 
ATOM     26  C   UNL     1      47.044  15.867  19.435  0.00  0.00    +0.074 C 
ATOM     27  C   UNL     1      47.321  15.368  18.025  0.00  0.00    +0.259 C 
ATOM     28  N   UNL     1      47.391  16.405  17.027  0.00  0.00    -0.377 N 
ATOM     29  H   UNL     1      48.217  16.241  16.471  0.00  0.00    +0.425 HD
ATOM     30  C   UNL     1      46.213  16.302  16.155  0.00  0.00    +0.317 C 
ATOM     31  C   UNL     1      49.689  18.760  17.623  0.00  0.00    -0.054 A 
ATOM     32  C   UNL     1      50.938  18.997  18.155  0.00  0.00    +0.117 A 
ATOM     35  C   UNL     1      48.267  16.349  20.171  0.00  0.00    +0.105 C 
ATOM     36  C   UNL     1      51.304  18.385  19.350  0.00  0.00    +0.123 A 
ENDROOT
BRANCH  18  19
ATOM     19  O   UNL     1      43.481  20.190  19.136  0.00  0.00    -0.294 OA
ATOM     20  C   UNL     1      43.954  21.421  19.685  0.00  0.00    +0.250 C 
ENDBRANCH  18  19
BRANCH  21  22
ATOM     22  O   UNL     1      42.973  18.179  20.942  0.00  0.00    -0.477 OA
ATOM     23  H   UNL     1      42.136  18.287  20.470  0.00  0.00    +0.395 HD
ENDBRANCH  21  22
BRANCH  32  33
ATOM     33  O   UNL     1      51.805  19.830  17.520  0.00  0.00    -0.297 OA
ATOM     34  C   UNL     1      52.202  19.466  16.195  0.00  0.00    +0.245 C 
ENDBRANCH  32  33
BRANCH  36  37
ATOM     37  O   UNL     1      52.527  18.616  19.897  0.00  0.00    -0.295 OA
ATOM     38  C   UNL     1      52.629  19.697  20.827  0.00  0.00    +0.229 C 
ENDBRANCH  36  37
BRANCH  12  11
ATOM     11  C   UNL     1      50.801  16.857  21.258  0.00  0.00    +0.146 C 
BRANCH  11  10
ATOM      1  C   UNL     1      52.318  10.461  17.888  0.00  0.00    +0.191 C 
ATOM      2  N   UNL     1      52.663  11.448  18.919  0.00  0.00    -0.524 NA
ATOM      3  C   UNL     1      54.092  11.794  18.861  0.00  0.00    +0.176 C 
ATOM      4  C   UNL     1      54.469  12.520  20.153  0.00  0.00    +0.085 C 
ATOM      5  C   UNL     1      53.495  13.639  20.417  0.00  0.00    -0.015 A 
ATOM      6  C   UNL     1      53.854  14.627  21.321  0.00  0.00    -0.084 A 
ATOM      7  C   UNL     1      52.986  15.671  21.596  0.00  0.00    +0.151 A 
ATOM     10  C   UNL     1      51.753  15.726  20.962  0.00  0.00    -0.122 A 
ATOM     39  C   UNL     1      51.400  14.743  20.062  0.00  0.00    +0.047 A 
ATOM     40  C   UNL     1      52.271  13.699  19.785  0.00  0.00    -0.103 A 
ATOM     41  C   UNL     1      51.842  12.655  18.786  0.00  0.00    +0.187 C 
BRANCH   7   8
ATOM      8  O   UNL     1      53.341  16.637  22.484  0.00  0.00    -0.288 OA
ATOM      9  C   UNL     1      54.717  17.024  22.505  0.00  0.00    +0.232 C 
ENDBRANCH   7   8
BRANCH  41  42
ATOM     42  C   UNL     1      50.374  12.297  19.029  0.00  0.00    +0.076 C 
BRANCH  42  43
ATOM     43  C   UNL     1      49.585  12.526  17.765  0.00  0.00    -0.061 A 
ATOM     44  C   UNL     1      50.095  13.340  16.772  0.00  0.00    +0.050 A 
ATOM     45  C   UNL     1      49.374  13.553  15.612  0.00  0.00    -0.021 A 
ATOM     46  C   UNL     1      48.137  12.946  15.447  0.00  0.00    +0.098 A 
ATOM     49  C   UNL     1      47.628  12.129  16.445  0.00  0.00    -0.036 A 
ATOM     50  C   UNL     1      48.356  11.915  17.599  0.00  0.00    +0.026 A 
BRANCH  46  47
ATOM     47  O   UNL     1      47.426  13.153  14.307  0.00  0.00    -0.506 OA
ATOM     48  H   UNL     1      46.672  13.748  14.417  0.00  0.00    +0.389 HD
ENDBRANCH  46  47
ENDBRANCH  42  43
ENDBRANCH  41  42
ENDBRANCH  11  10
ENDBRANCH  12  11
TORSDOF 10
ENDMDL
MODEL 5
REMARK VINA RESULT:      -6.2      3.186      5.486
REMARK  Name = ZINC95485889
REMARK  16 active torsions:
REMARK  status: ('A' for Active; 'I' for Inactive)
REMARK    1  A    between atoms: C1_1  and  N1_2
REMARK    2  A    between atoms: C6_7  and  O6_49
REMARK    3  A    between atoms: C7_8  and  C18_21
REMARK    4  A    between atoms: C10_11  and  C11_13
REMARK    5  A    between atoms: C11_13  and  C12_14
REMARK    6  A    between atoms: C15_17  and  O1_20
REMARK    7  A    between atoms: C18_21  and  C19_22
REMARK    8  A    between atoms: C23_26  and  O3_30
REMARK    9  A    between atoms: C24_27  and  O2_28
REMARK   10  A    between atoms: O2_28  and  C25_29
REMARK   11  A    between atoms: O3_30  and  C26_31
REMARK   12  A    between atoms: C30_36  and  O5_47
REMARK   13  A    between atoms: C31_37  and  O4_46
REMARK   14  A    between atoms: N2_44  and  C37_45
REMARK   15  A    between atoms: O5_47  and  C38_48
REMARK   16  A    between atoms: O6_49  and  C39_50
REMARK                            x       y       z     vdW  Elec       q    Type
REMARK                         _______ _______ _______ _____ _____    ______ ____
ROOT
ATOM     12  C   UNL     1      48.265  16.495  17.622  0.00  0.00    -0.061 A 
ATOM     13  C   UNL     1      47.614  17.299  18.558  0.00  0.00    -0.050 A 
ATOM     14  C   UNL     1      46.492  16.843  19.193  0.00  0.00    -0.113 A 
ATOM     15  C   UNL     1      45.678  17.603  20.189  0.00  0.00    +0.298 C 
ATOM     16  C   UNL     1      45.302  18.989  19.787  0.00  0.00    -0.101 A 
ATOM     17  C   UNL     1      44.016  19.368  19.475  0.00  0.00    -0.011 A 
ATOM     18  C   UNL     1      43.753  20.687  19.137  0.00  0.00    +0.125 A 
ATOM     21  C   UNL     1      44.782  21.625  19.114  0.00  0.00    +0.115 A 
ATOM     24  C   UNL     1      46.080  21.234  19.421  0.00  0.00    +0.060 A 
ATOM     25  C   UNL     1      46.329  19.925  19.742  0.00  0.00    -0.105 A 
ATOM     26  C   UNL     1      47.696  19.374  20.027  0.00  0.00    +0.074 C 
ATOM     27  C   UNL     1      47.654  18.534  21.295  0.00  0.00    +0.259 C 
ATOM     28  N   UNL     1      46.485  17.701  21.420  0.00  0.00    -0.377 N 
ATOM     29  H   UNL     1      46.793  16.776  21.681  0.00  0.00    +0.425 HD
ATOM     30  C   UNL     1      45.639  18.233  22.498  0.00  0.00    +0.317 C 
ATOM     31  C   UNL     1      46.022  15.558  18.896  0.00  0.00    -0.054 A 
ATOM     32  C   UNL     1      46.662  14.758  17.974  0.00  0.00    +0.117 A 
ATOM     35  C   UNL     1      48.215  18.641  18.818  0.00  0.00    +0.105 C 
ATOM     36  C   UNL     1      47.794  15.233  17.319  0.00  0.00    +0.123 A 
ENDROOT
BRANCH  18  19
ATOM     19  O   UNL     1      42.484  21.067  18.827  0.00  0.00    -0.294 OA
ATOM     20  C   UNL     1      41.432  20.169  19.186  0.00  0.00    +0.250 C 
ENDBRANCH  18  19
BRANCH  21  22
ATOM     22  O   UNL     1      44.518  22.919  18.794  0.00  0.00    -0.477 OA
ATOM     23  H   UNL     1      44.048  23.408  19.483  0.00  0.00    +0.395 HD
ENDBRANCH  21  22
BRANCH  32  33
ATOM     33  O   UNL     1      46.186  13.513  17.702  0.00  0.00    -0.297 OA
ATOM     34  C   UNL     1      45.288  12.939  18.654  0.00  0.00    +0.245 C 
ENDBRANCH  32  33
BRANCH  36  37
ATOM     37  O   UNL     1      48.432  14.464  16.398  0.00  0.00    -0.295 OA
ATOM     38  C   UNL     1      47.656  13.995  15.293  0.00  0.00    +0.229 C 
ENDBRANCH  36  37
BRANCH  12  11
ATOM     11  C   UNL     1      49.496  17.015  16.927  0.00  0.00    +0.146 C 
BRANCH  11  10
ATOM      1  C   UNL     1      53.714  11.748  19.934  0.00  0.00    +0.191 C 
ATOM      2  N   UNL     1      53.365  13.171  19.834  0.00  0.00    -0.524 NA
ATOM      3  C   UNL     1      54.568  13.997  19.644  0.00  0.00    +0.176 C 
ATOM      4  C   UNL     1      54.201  15.457  19.913  0.00  0.00    +0.085 C 
ATOM      5  C   UNL     1      52.972  15.832  19.127  0.00  0.00    -0.015 A 
ATOM      6  C   UNL     1      52.687  17.177  18.950  0.00  0.00    -0.084 A 
ATOM      7  C   UNL     1      51.564  17.566  18.237  0.00  0.00    +0.151 A 
ATOM     10  C   UNL     1      50.723  16.601  17.701  0.00  0.00    -0.122 A 
ATOM     39  C   UNL     1      51.010  15.265  17.877  0.00  0.00    +0.047 A 
ATOM     40  C   UNL     1      52.137  14.876  18.588  0.00  0.00    -0.103 A 
ATOM     41  C   UNL     1      52.412  13.403  18.745  0.00  0.00    +0.187 C 
BRANCH   7   8
ATOM      8  O   UNL     1      51.287  18.885  18.066  0.00  0.00    -0.288 OA
ATOM      9  C   UNL     1      51.935  19.548  16.978  0.00  0.00    +0.232 C 
ENDBRANCH   7   8
BRANCH  41  42
ATOM     42  C   UNL     1      51.103  12.675  19.056  0.00  0.00    +0.076 C 
BRANCH  42  43
ATOM     43  C   UNL     1      50.573  12.033  17.799  0.00  0.00    -0.061 A 
ATOM     44  C   UNL     1      49.304  11.484  17.788  0.00  0.00    +0.050 A 
ATOM     45  C   UNL     1      48.816  10.895  16.637  0.00  0.00    -0.021 A 
ATOM     46  C   UNL     1      49.600  10.856  15.494  0.00  0.00    +0.098 A 
ATOM     49  C   UNL     1      50.872  11.408  15.508  0.00  0.00    -0.036 A 
ATOM     50  C   UNL     1      51.353  12.001  16.660  0.00  0.00    +0.026 A 
BRANCH  46  47
ATOM     47  O   UNL     1      49.122  10.277  14.360  0.00  0.00    -0.506 OA
ATOM     48  H   UNL     1      49.708   9.607  13.984  0.00  0.00    +0.389 HD
ENDBRANCH  46  47
ENDBRANCH  42  43
ENDBRANCH  41  42
ENDBRANCH  11  10
ENDBRANCH  12  11
TORSDOF 10
ENDMDL
MODEL 6
REMARK VINA RESULT:      -6.1      3.297      5.181
REMARK  Name = ZINC95485889
REMARK  16 active torsions:
REMARK  status: ('A' for Active; 'I' for Inactive)
REMARK    1  A    between atoms: C1_1  and  N1_2
REMARK    2  A    between atoms: C6_7  and  O6_49
REMARK    3  A    between atoms: C7_8  and  C18_21
REMARK    4  A    between atoms: C10_11  and  C11_13
REMARK    5  A    between atoms: C11_13  and  C12_14
REMARK    6  A    between atoms: C15_17  and  O1_20
REMARK    7  A    between atoms: C18_21  and  C19_22
REMARK    8  A    between atoms: C23_26  and  O3_30
REMARK    9  A    between atoms: C24_27  and  O2_28
REMARK   10  A    between atoms: O2_28  and  C25_29
REMARK   11  A    between atoms: O3_30  and  C26_31
REMARK   12  A    between atoms: C30_36  and  O5_47
REMARK   13  A    between atoms: C31_37  and  O4_46
REMARK   14  A    between atoms: N2_44  and  C37_45
REMARK   15  A    between atoms: O5_47  and  C38_48
REMARK   16  A    between atoms: O6_49  and  C39_50
REMARK                            x       y       z     vdW  Elec       q    Type
REMARK                         _______ _______ _______ _____ _____    ______ ____
ROOT
ATOM     12  C   UNL     1      48.569  14.094  17.172  0.00  0.00    -0.061 A 
ATOM     13  C   UNL     1      48.117  15.014  18.119  0.00  0.00    -0.050 A 
ATOM     14  C   UNL     1      46.932  14.807  18.766  0.00  0.00    -0.113 A 
ATOM     15  C   UNL     1      46.312  15.718  19.775  0.00  0.00    +0.298 C 
ATOM     16  C   UNL     1      46.238  17.155  19.383  0.00  0.00    -0.101 A 
ATOM     17  C   UNL     1      45.059  17.803  19.089  0.00  0.00    -0.011 A 
ATOM     18  C   UNL     1      45.082  19.150  18.757  0.00  0.00    +0.125 A 
ATOM     21  C   UNL     1      46.289  19.844  18.725  0.00  0.00    +0.115 A 
ATOM     24  C   UNL     1      47.477  19.182  19.014  0.00  0.00    +0.060 A 
ATOM     25  C   UNL     1      47.442  17.848  19.328  0.00  0.00    -0.105 A 
ATOM     26  C   UNL     1      48.661  17.015  19.593  0.00  0.00    +0.074 C 
ATOM     27  C   UNL     1      48.455  16.196  20.859  0.00  0.00    +0.259 C 
ATOM     28  N   UNL     1      47.136  15.634  20.997  0.00  0.00    -0.377 N 
ATOM     29  H   UNL     1      47.240  14.662  21.251  0.00  0.00    +0.425 HD
ATOM     30  C   UNL     1      46.437  16.328  22.087  0.00  0.00    +0.317 C 
ATOM     31  C   UNL     1      46.193  13.655  18.472  0.00  0.00    -0.054 A 
ATOM     32  C   UNL     1      46.635  12.740  17.539  0.00  0.00    +0.117 A 
ATOM     35  C   UNL     1      48.997  16.195  18.375  0.00  0.00    +0.105 C 
ATOM     36  C   UNL     1      47.835  12.965  16.871  0.00  0.00    +0.123 A 
ENDROOT
BRANCH  18  19
ATOM     19  O   UNL     1      43.922  19.795  18.465  0.00  0.00    -0.294 OA
ATOM     20  C   UNL     1      43.005  20.001  19.541  0.00  0.00    +0.250 C 
ENDBRANCH  18  19
BRANCH  21  22
ATOM     22  O   UNL     1      46.305  21.167  18.411  0.00  0.00    -0.477 OA
ATOM     23  H   UNL     1      46.841  21.707  19.009  0.00  0.00    +0.395 HD
ENDBRANCH  21  22
BRANCH  32  33
ATOM     33  O   UNL     1      45.900  11.629  17.269  0.00  0.00    -0.297 OA
ATOM     34  C   UNL     1      44.676  11.818  16.554  0.00  0.00    +0.245 C 
ENDBRANCH  32  33
BRANCH  36  37
ATOM     37  O   UNL     1      48.282  12.082  15.939  0.00  0.00    -0.295 OA
ATOM     38  C   UNL     1      47.826  12.267  14.598  0.00  0.00    +0.229 C 
ENDBRANCH  36  37
BRANCH  12  11
ATOM     11  C   UNL     1      49.876  14.342  16.463  0.00  0.00    +0.146 C 
BRANCH  11  10
ATOM      1  C   UNL     1      55.116  16.030  21.388  0.00  0.00    +0.191 C 
ATOM      2  N   UNL     1      54.567  15.074  20.418  0.00  0.00    -0.524 NA
ATOM      3  C   UNL     1      54.486  13.723  20.998  0.00  0.00    +0.176 C 
ATOM      4  C   UNL     1      54.267  12.721  19.864  0.00  0.00    +0.085 C 
ATOM      5  C   UNL     1      53.122  13.171  18.994  0.00  0.00    -0.015 A 
ATOM      6  C   UNL     1      52.537  12.246  18.142  0.00  0.00    -0.084 A 
ATOM      7  C   UNL     1      51.486  12.620  17.322  0.00  0.00    +0.151 A 
ATOM     10  C   UNL     1      51.018  13.926  17.355  0.00  0.00    -0.122 A 
ATOM     39  C   UNL     1      51.600  14.842  18.204  0.00  0.00    +0.047 A 
ATOM     40  C   UNL     1      52.652  14.467  19.028  0.00  0.00    -0.103 A 
ATOM     41  C   UNL     1      53.248  15.503  19.945  0.00  0.00    +0.187 C 
BRANCH   7   8
ATOM      8  O   UNL     1      50.915  11.711  16.487  0.00  0.00    -0.288 OA
ATOM      9  C   UNL     1      51.726  11.211  15.422  0.00  0.00    +0.232 C 
ENDBRANCH   7   8
BRANCH  41  42
ATOM     42  C   UNL     1      53.389  16.826  19.189  0.00  0.00    +0.076 C 
BRANCH  42  43
ATOM     43  C   UNL     1      52.446  17.844  19.776  0.00  0.00    -0.061 A 
ATOM     44  C   UNL     1      52.042  17.731  21.093  0.00  0.00    +0.050 A 
ATOM     45  C   UNL     1      51.176  18.663  21.634  0.00  0.00    -0.021 A 
ATOM     46  C   UNL     1      50.715  19.713  20.853  0.00  0.00    +0.098 A 
ATOM     49  C   UNL     1      51.123  19.824  19.533  0.00  0.00    -0.036 A 
ATOM     50  C   UNL     1      51.993  18.893  18.999  0.00  0.00    +0.026 A 
BRANCH  46  47
ATOM     47  O   UNL     1      49.864  20.631  21.383  0.00  0.00    -0.506 OA
ATOM     48  H   UNL     1      50.149  21.547  21.264  0.00  0.00    +0.389 HD
ENDBRANCH  46  47
ENDBRANCH  42  43
ENDBRANCH  41  42
ENDBRANCH  11  10
ENDBRANCH  12  11
TORSDOF 10
ENDMDL
MODEL 7
REMARK VINA RESULT:      -6.1      2.279      4.491
REMARK  Name = ZINC95485889
REMARK  16 active torsions:
REMARK  status: ('A' for Active; 'I' for Inactive)
REMARK    1  A    between atoms: C1_1  and  N1_2
REMARK    2  A    between atoms: C6_7  and  O6_49
REMARK    3  A    between atoms: C7_8  and  C18_21
REMARK    4  A    between atoms: C10_11  and  C11_13
REMARK    5  A    between atoms: C11_13  and  C12_14
REMARK    6  A    between atoms: C15_17  and  O1_20
REMARK    7  A    between atoms: C18_21  and  C19_22
REMARK    8  A    between atoms: C23_26  and  O3_30
REMARK    9  A    between atoms: C24_27  and  O2_28
REMARK   10  A    between atoms: O2_28  and  C25_29
REMARK   11  A    between atoms: O3_30  and  C26_31
REMARK   12  A    between atoms: C30_36  and  O5_47
REMARK   13  A    between atoms: C31_37  and  O4_46
REMARK   14  A    between atoms: N2_44  and  C37_45
REMARK   15  A    between atoms: O5_47  and  C38_48
REMARK   16  A    between atoms: O6_49  and  C39_50
REMARK                            x       y       z     vdW  Elec       q    Type
REMARK                         _______ _______ _______ _____ _____    ______ ____
ROOT
ATOM     12  C   UNL     1      48.632  18.490  18.294  0.00  0.00    -0.061 A 
ATOM     13  C   UNL     1      47.524  18.735  19.107  0.00  0.00    -0.050 A 
ATOM     14  C   UNL     1      46.431  17.918  19.043  0.00  0.00    -0.113 A 
ATOM     15  C   UNL     1      45.169  18.078  19.826  0.00  0.00    +0.298 C 
ATOM     16  C   UNL     1      44.573  19.444  19.810  0.00  0.00    -0.101 A 
ATOM     17  C   UNL     1      43.398  19.753  19.162  0.00  0.00    -0.011 A 
ATOM     18  C   UNL     1      42.902  21.048  19.222  0.00  0.00    +0.125 A 
ATOM     21  C   UNL     1      43.587  22.029  19.935  0.00  0.00    +0.115 A 
ATOM     24  C   UNL     1      44.777  21.713  20.580  0.00  0.00    +0.060 A 
ATOM     25  C   UNL     1      45.262  20.433  20.503  0.00  0.00    -0.105 A 
ATOM     26  C   UNL     1      46.565  19.991  21.101  0.00  0.00    +0.074 C 
ATOM     27  C   UNL     1      46.359  18.696  21.874  0.00  0.00    +0.259 C 
ATOM     28  N   UNL     1      45.487  17.749  21.229  0.00  0.00    -0.377 N 
ATOM     29  H   UNL     1      45.939  16.846  21.256  0.00  0.00    +0.425 HD
ATOM     30  C   UNL     1      44.234  17.665  21.991  0.00  0.00    +0.317 C 
ATOM     31  C   UNL     1      46.452  16.829  18.162  0.00  0.00    -0.054 A 
ATOM     32  C   UNL     1      47.544  16.580  17.359  0.00  0.00    +0.117 A 
ATOM     35  C   UNL     1      47.620  19.908  20.028  0.00  0.00    +0.105 C 
ATOM     36  C   UNL     1      48.647  17.426  17.416  0.00  0.00    +0.123 A 
ENDROOT
BRANCH  18  19
ATOM     19  O   UNL     1      41.743  21.360  18.583  0.00  0.00    -0.294 OA
ATOM     20  C   UNL     1      40.547  20.755  19.077  0.00  0.00    +0.250 C 
ENDBRANCH  18  19
BRANCH  21  22
ATOM     22  O   UNL     1      43.091  23.293  20.001  0.00  0.00    -0.477 OA
ATOM     23  H   UNL     1      42.836  23.661  19.143  0.00  0.00    +0.395 HD
ENDBRANCH  21  22
BRANCH  32  33
ATOM     33  O   UNL     1      47.540  15.517  16.510  0.00  0.00    -0.297 OA
ATOM     34  C   UNL     1      46.591  14.480  16.773  0.00  0.00    +0.245 C 
ENDBRANCH  32  33
BRANCH  36  37
ATOM     37  O   UNL     1      49.729  17.203  16.623  0.00  0.00    -0.295 OA
ATOM     38  C   UNL     1      50.496  16.026  16.886  0.00  0.00    +0.229 C 
ENDBRANCH  36  37
BRANCH  12  11
ATOM     11  C   UNL     1      49.827  19.406  18.373  0.00  0.00    +0.146 C 
BRANCH  11  10
ATOM      1  C   UNL     1      52.446  13.871  22.505  0.00  0.00    +0.191 C 
ATOM      2  N   UNL     1      52.357  15.315  22.253  0.00  0.00    -0.524 NA
ATOM      3  C   UNL     1      53.691  15.938  22.279  0.00  0.00    +0.176 C 
ATOM      4  C   UNL     1      53.516  17.454  22.380  0.00  0.00    +0.085 C 
ATOM      5  C   UNL     1      52.548  17.932  21.329  0.00  0.00    -0.015 A 
ATOM      6  C   UNL     1      52.524  19.283  21.019  0.00  0.00    -0.084 A 
ATOM      7  C   UNL     1      51.646  19.765  20.062  0.00  0.00    +0.151 A 
ATOM     10  C   UNL     1      50.788  18.889  19.414  0.00  0.00    -0.122 A 
ATOM     39  C   UNL     1      50.815  17.546  19.723  0.00  0.00    +0.047 A 
ATOM     40  C   UNL     1      51.697  17.063  20.679  0.00  0.00    -0.103 A 
ATOM     41  C   UNL     1      51.695  15.585  20.974  0.00  0.00    +0.187 C 
BRANCH   7   8
ATOM      8  O   UNL     1      51.625  21.090  19.761  0.00  0.00    -0.288 OA
ATOM      9  C   UNL     1      52.559  21.926  20.448  0.00  0.00    +0.232 C 
ENDBRANCH   7   8
BRANCH  41  42
ATOM     42  C   UNL     1      50.250  15.085  21.038  0.00  0.00    +0.076 C 
BRANCH  42  43
ATOM     43  C   UNL     1      50.047  14.000  20.012  0.00  0.00    -0.061 A 
ATOM     44  C   UNL     1      48.780  13.501  19.779  0.00  0.00    +0.050 A 
ATOM     45  C   UNL     1      48.590  12.506  18.838  0.00  0.00    -0.021 A 
ATOM     46  C   UNL     1      49.674  12.010  18.128  0.00  0.00    +0.098 A 
ATOM     49  C   UNL     1      50.944  12.514  18.364  0.00  0.00    -0.036 A 
ATOM     50  C   UNL     1      51.127  13.513  19.301  0.00  0.00    +0.026 A 
BRANCH  46  47
ATOM     47  O   UNL     1      49.491  11.032  17.202  0.00  0.00    -0.506 OA
ATOM     48  H   UNL     1      49.748  10.151  17.505  0.00  0.00    +0.389 HD
ENDBRANCH  46  47
ENDBRANCH  42  43
ENDBRANCH  41  42
ENDBRANCH  11  10
ENDBRANCH  12  11
TORSDOF 10
ENDMDL
MODEL 8
REMARK VINA RESULT:      -6.0      2.581      4.260
REMARK  Name = ZINC95485889
REMARK  16 active torsions:
REMARK  status: ('A' for Active; 'I' for Inactive)
REMARK    1  A    between atoms: C1_1  and  N1_2
REMARK    2  A    between atoms: C6_7  and  O6_49
REMARK    3  A    between atoms: C7_8  and  C18_21
REMARK    4  A    between atoms: C10_11  and  C11_13
REMARK    5  A    between atoms: C11_13  and  C12_14
REMARK    6  A    between atoms: C15_17  and  O1_20
REMARK    7  A    between atoms: C18_21  and  C19_22
REMARK    8  A    between atoms: C23_26  and  O3_30
REMARK    9  A    between atoms: C24_27  and  O2_28
REMARK   10  A    between atoms: O2_28  and  C25_29
REMARK   11  A    between atoms: O3_30  and  C26_31
REMARK   12  A    between atoms: C30_36  and  O5_47
REMARK   13  A    between atoms: C31_37  and  O4_46
REMARK   14  A    between atoms: N2_44  and  C37_45
REMARK   15  A    between atoms: O5_47  and  C38_48
REMARK   16  A    between atoms: O6_49  and  C39_50
REMARK                            x       y       z     vdW  Elec       q    Type
REMARK                         _______ _______ _______ _____ _____    ______ ____
ROOT
ATOM     12  C   UNL     1      50.672  14.449  19.903  0.00  0.00    -0.061 A 
ATOM     13  C   UNL     1      49.280  14.540  19.880  0.00  0.00    -0.050 A 
ATOM     14  C   UNL     1      48.604  14.427  18.697  0.00  0.00    -0.113 A 
ATOM     15  C   UNL     1      47.124  14.535  18.519  0.00  0.00    +0.298 C 
ATOM     16  C   UNL     1      46.485  15.718  19.164  0.00  0.00    -0.101 A 
ATOM     17  C   UNL     1      45.955  16.775  18.458  0.00  0.00    -0.011 A 
ATOM     18  C   UNL     1      45.355  17.823  19.141  0.00  0.00    +0.125 A 
ATOM     21  C   UNL     1      45.286  17.806  20.531  0.00  0.00    +0.115 A 
ATOM     24  C   UNL     1      45.831  16.741  21.239  0.00  0.00    +0.060 A 
ATOM     25  C   UNL     1      46.432  15.718  20.553  0.00  0.00    -0.105 A 
ATOM     26  C   UNL     1      47.110  14.551  21.209  0.00  0.00    +0.074 C 
ATOM     27  C   UNL     1      46.650  13.257  20.553  0.00  0.00    +0.259 C 
ATOM     28  N   UNL     1      46.528  13.326  19.119  0.00  0.00    -0.377 N 
ATOM     29  H   UNL     1      46.984  12.513  18.732  0.00  0.00    +0.425 HD
ATOM     30  C   UNL     1      45.103  13.276  18.763  0.00  0.00    +0.317 C 
ATOM     31  C   UNL     1      49.330  14.205  17.522  0.00  0.00    -0.054 A 
ATOM     32  C   UNL     1      50.706  14.111  17.538  0.00  0.00    +0.117 A 
ATOM     35  C   UNL     1      48.603  14.752  21.195  0.00  0.00    +0.105 C 
ATOM     36  C   UNL     1      51.390  14.244  18.742  0.00  0.00    +0.123 A 
ENDROOT
BRANCH  18  19
ATOM     19  O   UNL     1      44.831  18.870  18.449  0.00  0.00    -0.294 OA
ATOM     20  C   UNL     1      45.620  20.059  18.377  0.00  0.00    +0.250 C 
ENDBRANCH  18  19
BRANCH  21  22
ATOM     22  O   UNL     1      44.687  18.830  21.196  0.00  0.00    -0.477 OA
ATOM     23  H   UNL     1      43.789  19.025  20.892  0.00  0.00    +0.395 HD
ENDBRANCH  21  22
BRANCH  32  33
ATOM     33  O   UNL     1      51.390  13.896  16.382  0.00  0.00    -0.297 OA
ATOM     34  C   UNL     1      51.354  12.572  15.843  0.00  0.00    +0.245 C 
ENDBRANCH  32  33
BRANCH  36  37
ATOM     37  O   UNL     1      52.747  14.167  18.777  0.00  0.00    -0.295 OA
ATOM     38  C   UNL     1      53.318  12.888  19.060  0.00  0.00    +0.229 C 
ENDBRANCH  36  37
BRANCH  12  11
ATOM     11  C   UNL     1      51.402  14.584  21.214  0.00  0.00    +0.146 C 
BRANCH  11  10
ATOM      1  C   UNL     1      49.237  21.642  21.466  0.00  0.00    +0.191 C 
ATOM      2  N   UNL     1      50.334  20.667  21.441  0.00  0.00    -0.524 NA
ATOM      3  C   UNL     1      51.317  20.951  22.500  0.00  0.00    +0.176 C 
ATOM      4  C   UNL     1      52.591  20.159  22.205  0.00  0.00    +0.085 C 
ATOM      5  C   UNL     1      52.250  18.714  21.947  0.00  0.00    -0.015 A 
ATOM      6  C   UNL     1      53.267  17.774  22.015  0.00  0.00    -0.084 A 
ATOM      7  C   UNL     1      52.998  16.436  21.779  0.00  0.00    +0.151 A 
ATOM     10  C   UNL     1      51.704  16.038  21.475  0.00  0.00    -0.122 A 
ATOM     39  C   UNL     1      50.695  16.975  21.410  0.00  0.00    +0.047 A 
ATOM     40  C   UNL     1      50.964  18.315  21.649  0.00  0.00    -0.103 A 
ATOM     41  C   UNL     1      49.825  19.299  21.576  0.00  0.00    +0.187 C 
BRANCH   7   8
ATOM      8  O   UNL     1      53.997  15.517  21.846  0.00  0.00    -0.288 OA
ATOM      9  C   UNL     1      55.130  15.728  21.000  0.00  0.00    +0.232 C 
ENDBRANCH   7   8
BRANCH  41  42
ATOM     42  C   UNL     1      48.947  18.966  20.368  0.00  0.00    +0.076 C 
BRANCH  42  43
ATOM     43  C   UNL     1      49.796  18.933  19.123  0.00  0.00    -0.061 A 
ATOM     44  C   UNL     1      50.587  20.019  18.799  0.00  0.00    +0.050 A 
ATOM     45  C   UNL     1      51.367  19.992  17.658  0.00  0.00    -0.021 A 
ATOM     46  C   UNL     1      51.355  18.872  16.839  0.00  0.00    +0.098 A 
ATOM     49  C   UNL     1      50.561  17.784  17.167  0.00  0.00    -0.036 A 
ATOM     50  C   UNL     1      49.788  17.814  18.312  0.00  0.00    +0.026 A 
BRANCH  46  47
ATOM     47  O   UNL     1      52.121  18.842  15.717  0.00  0.00    -0.506 OA
ATOM     48  H   UNL     1      51.614  18.868  14.894  0.00  0.00    +0.389 HD
ENDBRANCH  46  47
ENDBRANCH  42  43
ENDBRANCH  41  42
ENDBRANCH  11  10
ENDBRANCH  12  11
TORSDOF 10
ENDMDL
MODEL 9
REMARK VINA RESULT:      -5.8      2.650      4.428
REMARK  Name = ZINC95485889
REMARK  16 active torsions:
REMARK  status: ('A' for Active; 'I' for Inactive)
REMARK    1  A    between atoms: C1_1  and  N1_2
REMARK    2  A    between atoms: C6_7  and  O6_49
REMARK    3  A    between atoms: C7_8  and  C18_21
REMARK    4  A    between atoms: C10_11  and  C11_13
REMARK    5  A    between atoms: C11_13  and  C12_14
REMARK    6  A    between atoms: C15_17  and  O1_20
REMARK    7  A    between atoms: C18_21  and  C19_22
REMARK    8  A    between atoms: C23_26  and  O3_30
REMARK    9  A    between atoms: C24_27  and  O2_28
REMARK   10  A    between atoms: O2_28  and  C25_29
REMARK   11  A    between atoms: O3_30  and  C26_31
REMARK   12  A    between atoms: C30_36  and  O5_47
REMARK   13  A    between atoms: C31_37  and  O4_46
REMARK   14  A    between atoms: N2_44  and  C37_45
REMARK   15  A    between atoms: O5_47  and  C38_48
REMARK   16  A    between atoms: O6_49  and  C39_50
REMARK                            x       y       z     vdW  Elec       q    Type
REMARK                         _______ _______ _______ _____ _____    ______ ____
ROOT
ATOM     12  C   UNL     1      49.465  18.897  18.747  0.00  0.00    -0.061 A 
ATOM     13  C   UNL     1      48.445  19.347  19.586  0.00  0.00    -0.050 A 
ATOM     14  C   UNL     1      47.159  18.926  19.391  0.00  0.00    -0.113 A 
ATOM     15  C   UNL     1      45.967  19.348  20.186  0.00  0.00    +0.298 C 
ATOM     16  C   UNL     1      45.817  20.817  20.387  0.00  0.00    -0.101 A 
ATOM     17  C   UNL     1      44.826  21.568  19.793  0.00  0.00    -0.011 A 
ATOM     18  C   UNL     1      44.746  22.927  20.057  0.00  0.00    +0.125 A 
ATOM     21  C   UNL     1      45.659  23.530  20.919  0.00  0.00    +0.115 A 
ATOM     24  C   UNL     1      46.662  22.769  21.508  0.00  0.00    +0.060 A 
ATOM     25  C   UNL     1      46.738  21.429  21.229  0.00  0.00    -0.105 A 
ATOM     26  C   UNL     1      47.812  20.521  21.753  0.00  0.00    +0.074 C 
ATOM     27  C   UNL     1      47.183  19.253  22.310  0.00  0.00    +0.259 C 
ATOM     28  N   UNL     1      46.098  18.729  21.520  0.00  0.00    -0.377 N 
ATOM     29  H   UNL     1      46.252  17.738  21.404  0.00  0.00    +0.425 HD
ATOM     30  C   UNL     1      44.841  18.923  22.256  0.00  0.00    +0.317 C 
ATOM     31  C   UNL     1      46.892  18.030  18.348  0.00  0.00    -0.054 A 
ATOM     32  C   UNL     1      47.896  17.579  17.517  0.00  0.00    +0.117 A 
ATOM     35  C   UNL     1      48.845  20.280  20.682  0.00  0.00    +0.105 C 
ATOM     36  C   UNL     1      49.200  18.025  17.711  0.00  0.00    +0.123 A 
ENDROOT
BRANCH  18  19
ATOM     19  O   UNL     1      43.771  23.674  19.473  0.00  0.00    -0.294 OA
ATOM     20  C   UNL     1      42.533  23.019  19.192  0.00  0.00    +0.250 C 
ENDBRANCH  18  19
BRANCH  21  22
ATOM     22  O   UNL     1      45.569  24.861  21.184  0.00  0.00    -0.477 OA
ATOM     23  H   UNL     1      45.058  25.359  20.530  0.00  0.00    +0.395 HD
ENDBRANCH  21  22
BRANCH  32  33
ATOM     33  O   UNL     1      47.612  16.710  16.511  0.00  0.00    -0.297 OA
ATOM     34  C   UNL     1      46.515  15.817  16.715  0.00  0.00    +0.245 C 
ENDBRANCH  32  33
BRANCH  36  37
ATOM     37  O   UNL     1      50.202  17.601  16.895  0.00  0.00    -0.295 OA
ATOM     38  C   UNL     1      50.843  18.590  16.087  0.00  0.00    +0.229 C 
ENDBRANCH  36  37
BRANCH  12  11
ATOM     11  C   UNL     1      50.876  19.376  18.973  0.00  0.00    +0.146 C 
BRANCH  11  10
ATOM      1  C   UNL     1      52.491  12.467  21.027  0.00  0.00    +0.191 C 
ATOM      2  N   UNL     1      52.481  13.900  21.346  0.00  0.00    -0.524 NA
ATOM      3  C   UNL     1      53.791  14.336  21.855  0.00  0.00    +0.176 C 
ATOM      4  C   UNL     1      53.626  15.710  22.505  0.00  0.00    +0.085 C 
ATOM      5  C   UNL     1      52.904  16.641  21.565  0.00  0.00    -0.015 A 
ATOM      6  C   UNL     1      52.968  18.004  21.808  0.00  0.00    -0.084 A 
ATOM      7  C   UNL     1      52.314  18.894  20.971  0.00  0.00    +0.151 A 
ATOM     10  C   UNL     1      51.593  18.415  19.887  0.00  0.00    -0.122 A 
ATOM     39  C   UNL     1      51.533  17.059  19.648  0.00  0.00    +0.047 A 
ATOM     40  C   UNL     1      52.190  16.168  20.484  0.00  0.00    -0.103 A 
ATOM     41  C   UNL     1      52.101  14.696  20.175  0.00  0.00    +0.187 C 
BRANCH   7   8
ATOM      8  O   UNL     1      52.379  20.230  21.212  0.00  0.00    -0.288 OA
ATOM      9  C   UNL     1      51.840  20.693  22.452  0.00  0.00    +0.232 C 
ENDBRANCH   7   8
BRANCH  41  42
ATOM     42  C   UNL     1      50.666  14.350  19.773  0.00  0.00    +0.076 C 
BRANCH  42  43
ATOM     43  C   UNL     1      50.640  13.902  18.335  0.00  0.00    -0.061 A 
ATOM     44  C   UNL     1      51.739  13.264  17.792  0.00  0.00    +0.050 A 
ATOM     45  C   UNL     1      51.718  12.852  16.472  0.00  0.00    -0.021 A 
ATOM     46  C   UNL     1      50.592  13.079  15.695  0.00  0.00    +0.098 A 
ATOM     49  C   UNL     1      49.490  13.719  16.243  0.00  0.00    -0.036 A 
ATOM     50  C   UNL     1      49.514  14.123  17.564  0.00  0.00    +0.026 A 
BRANCH  46  47
ATOM     47  O   UNL     1      50.569  12.675  14.397  0.00  0.00    -0.506 OA
ATOM     48  H   UNL     1      51.297  13.022  13.864  0.00  0.00    +0.389 HD
ENDBRANCH  46  47
ENDBRANCH  42  43
ENDBRANCH  41  42
ENDBRANCH  11  10
ENDBRANCH  12  11
TORSDOF 10
ENDMDL
