MODEL 1
REMARK VINA RESULT:      -5.6      0.000      0.000
REMARK  Name = ZINC95485983
REMARK  8 active torsions:
REMARK  status: ('A' for Active; 'I' for Inactive)
REMARK    1  A    between atoms: C1_1  and  C2_2
REMARK    2  A    between atoms: C2_2  and  O2_4
REMARK    3  A    between atoms: O2_4  and  C3_5
REMARK    4  A    between atoms: C6_9  and  C7_10
REMARK    5  A    between atoms: C7_10  and  C8_11
REMARK    6  A    between atoms: C14_19  and  C21_26
REMARK    7  A    between atoms: C18_23  and  C19_24
REMARK    8  A    between atoms: C18_23  and  C20_25
REMARK                            x       y       z     vdW  Elec       q    Type
REMARK                         _______ _______ _______ _____ _____    ______ ____
ROOT
ATOM     10  C   UNL     1      48.817  18.213  19.257  0.00  0.00    +0.038 C 
ATOM     11  C   UNL     1      48.603  19.468  20.062  0.00  0.00    -0.105 C 
ATOM     12  C   UNL     1      48.669  20.764  19.284  0.00  0.00    +0.044 C 
ATOM     13  C   UNL     1      50.019  20.806  18.564  0.00  0.00    +0.016 C 
ATOM     14  C   UNL     1      50.245  19.567  17.685  0.00  0.00    +0.018 C 
ATOM     15  C   UNL     1      51.594  19.738  16.987  0.00  0.00    -0.053 C 
ATOM     16  C   UNL     1      51.679  21.149  16.361  0.00  0.00    +0.012 C 
ATOM     17  C   UNL     1      51.796  18.766  15.823  0.00  0.00    +0.022 C 
ATOM     18  C   UNL     1      52.745  19.618  17.983  0.00  0.00    +0.010 C 
ATOM     19  C   UNL     1      52.656  18.335  18.797  0.00  0.00    +0.000 C 
ATOM     20  C   UNL     1      51.316  18.264  19.532  0.00  0.00    +0.018 C 
ATOM     21  C   UNL     1      48.372  19.445  21.347  0.00  0.00    -0.011 C 
ATOM     22  C   UNL     1      50.168  18.296  18.527  0.00  0.00    -0.032 C 
ATOM     23  C   UNL     1      50.220  17.027  17.664  0.00  0.00    +0.020 C 
ENDROOT
BRANCH  10   9
ATOM      9  C   UNL     1      48.762  16.983  20.158  0.00  0.00    +0.115 C 
BRANCH   9   8
ATOM      4  C   UNL     1      46.232  16.406  19.857  0.00  0.00    -0.010 A 
ATOM      5  C   UNL     1      45.559  15.349  19.356  0.00  0.00    +0.160 A 
ATOM      6  O   UNL     1      46.455  14.432  18.949  0.00  0.00    -0.165 OA
ATOM      7  C   UNL     1      47.698  14.883  19.182  0.00  0.00    +0.187 A 
ATOM      8  C   UNL     1      47.611  16.105  19.738  0.00  0.00    -0.162 A 
BRANCH   4   3
ATOM      3  O   UNL     1      45.691  17.542  20.374  0.00  0.00    -0.255 OA
BRANCH   3   2
ATOM      1  C   UNL     1      45.373  18.897  18.335  0.00  0.00    +0.178 C 
ATOM      2  C   UNL     1      44.860  18.254  19.598  0.00  0.00    +0.458 C 
ATOM     24  O   UNL     1      43.696  18.380  19.912  0.00  0.00    -0.502 OA
ENDBRANCH   3   2
ENDBRANCH   4   3
ENDBRANCH   9   8
ENDBRANCH  10   9
TORSDOF 4
ENDMDL
MODEL 2
REMARK VINA RESULT:      -5.5      3.165      6.258
REMARK  Name = ZINC95485983
REMARK  8 active torsions:
REMARK  status: ('A' for Active; 'I' for Inactive)
REMARK    1  A    between atoms: C1_1  and  C2_2
REMARK    2  A    between atoms: C2_2  and  O2_4
REMARK    3  A    between atoms: O2_4  and  C3_5
REMARK    4  A    between atoms: C6_9  and  C7_10
REMARK    5  A    between atoms: C7_10  and  C8_11
REMARK    6  A    between atoms: C14_19  and  C21_26
REMARK    7  A    between atoms: C18_23  and  C19_24
REMARK    8  A    between atoms: C18_23  and  C20_25
REMARK                            x       y       z     vdW  Elec       q    Type
REMARK                         _______ _______ _______ _____ _____    ______ ____
ROOT
ATOM     10  C   UNL     1      48.383  18.562  18.084  0.00  0.00    +0.038 C 
ATOM     11  C   UNL     1      47.818  17.172  17.957  0.00  0.00    -0.105 C 
ATOM     12  C   UNL     1      46.398  17.087  17.443  0.00  0.00    +0.044 C 
ATOM     13  C   UNL     1      45.521  17.947  18.357  0.00  0.00    +0.016 C 
ATOM     14  C   UNL     1      46.035  19.390  18.462  0.00  0.00    +0.018 C 
ATOM     15  C   UNL     1      45.064  20.160  19.358  0.00  0.00    -0.053 C 
ATOM     16  C   UNL     1      43.612  19.894  18.898  0.00  0.00    +0.012 C 
ATOM     17  C   UNL     1      45.244  21.677  19.274  0.00  0.00    +0.022 C 
ATOM     18  C   UNL     1      45.170  19.693  20.807  0.00  0.00    +0.010 C 
ATOM     19  C   UNL     1      46.605  19.736  21.312  0.00  0.00    +0.000 C 
ATOM     20  C   UNL     1      47.508  18.884  20.419  0.00  0.00    +0.018 C 
ATOM     21  C   UNL     1      48.506  16.106  18.265  0.00  0.00    -0.011 C 
ATOM     22  C   UNL     1      47.469  19.407  18.986  0.00  0.00    -0.032 C 
ATOM     23  C   UNL     1      48.081  20.815  18.947  0.00  0.00    +0.020 C 
ENDROOT
BRANCH  10   9
ATOM      9  C   UNL     1      49.803  18.515  18.642  0.00  0.00    +0.115 C 
BRANCH   9   8
ATOM      4  C   UNL     1      51.429  20.192  17.474  0.00  0.00    -0.010 A 
ATOM      5  C   UNL     1      52.211  20.138  16.376  0.00  0.00    +0.160 A 
ATOM      6  O   UNL     1      52.061  18.927  15.810  0.00  0.00    -0.165 OA
ATOM      7  C   UNL     1      51.191  18.199  16.529  0.00  0.00    +0.187 A 
ATOM      8  C   UNL     1      50.777  18.939  17.573  0.00  0.00    -0.162 A 
BRANCH   4   3
ATOM      3  O   UNL     1      51.296  21.247  18.324  0.00  0.00    -0.255 OA
BRANCH   3   2
ATOM      1  C   UNL     1      51.311  21.058  20.785  0.00  0.00    +0.178 C 
ATOM      2  C   UNL     1      52.008  21.235  19.460  0.00  0.00    +0.458 C 
ATOM     24  O   UNL     1      53.212  21.367  19.422  0.00  0.00    -0.502 OA
ENDBRANCH   3   2
ENDBRANCH   4   3
ENDBRANCH   9   8
ENDBRANCH  10   9
TORSDOF 4
ENDMDL
MODEL 3
REMARK VINA RESULT:      -5.4      1.195      2.027
REMARK  Name = ZINC95485983
REMARK  8 active torsions:
REMARK  status: ('A' for Active; 'I' for Inactive)
REMARK    1  A    between atoms: C1_1  and  C2_2
REMARK    2  A    between atoms: C2_2  and  O2_4
REMARK    3  A    between atoms: O2_4  and  C3_5
REMARK    4  A    between atoms: C6_9  and  C7_10
REMARK    5  A    between atoms: C7_10  and  C8_11
REMARK    6  A    between atoms: C14_19  and  C21_26
REMARK    7  A    between atoms: C18_23  and  C19_24
REMARK    8  A    between atoms: C18_23  and  C20_25
REMARK                            x       y       z     vdW  Elec       q    Type
REMARK                         _______ _______ _______ _____ _____    ______ ____
ROOT
ATOM     10  C   UNL     1      48.752  18.227  19.434  0.00  0.00    +0.038 C 
ATOM     11  C   UNL     1      48.549  19.501  20.212  0.00  0.00    -0.105 C 
ATOM     12  C   UNL     1      48.615  20.779  19.404  0.00  0.00    +0.044 C 
ATOM     13  C   UNL     1      49.960  20.798  18.673  0.00  0.00    +0.016 C 
ATOM     14  C   UNL     1      50.174  19.538  17.821  0.00  0.00    +0.018 C 
ATOM     15  C   UNL     1      51.519  19.687  17.110  0.00  0.00    -0.053 C 
ATOM     16  C   UNL     1      51.605  21.083  16.451  0.00  0.00    +0.012 C 
ATOM     17  C   UNL     1      51.709  18.688  15.967  0.00  0.00    +0.022 C 
ATOM     18  C   UNL     1      52.677  19.585  18.101  0.00  0.00    +0.010 C 
ATOM     19  C   UNL     1      52.588  18.321  18.945  0.00  0.00    +0.000 C 
ATOM     20  C   UNL     1      51.253  18.273  19.690  0.00  0.00    +0.018 C 
ATOM     21  C   UNL     1      48.327  19.508  21.498  0.00  0.00    -0.011 C 
ATOM     22  C   UNL     1      50.097  18.287  18.693  0.00  0.00    -0.032 C 
ATOM     23  C   UNL     1      50.137  16.999  17.859  0.00  0.00    +0.020 C 
ENDROOT
BRANCH  10   9
ATOM      9  C   UNL     1      48.697  17.018  20.363  0.00  0.00    +0.115 C 
BRANCH   9   8
ATOM      4  C   UNL     1      46.801  15.538  19.346  0.00  0.00    -0.010 A 
ATOM      5  C   UNL     1      45.533  15.250  19.707  0.00  0.00    +0.160 A 
ATOM      6  O   UNL     1      45.257  15.912  20.845  0.00  0.00    -0.165 OA
ATOM      7  C   UNL     1      46.331  16.625  21.223  0.00  0.00    +0.187 A 
ATOM      8  C   UNL     1      47.315  16.419  20.328  0.00  0.00    -0.162 A 
BRANCH   4   3
ATOM      3  O   UNL     1      47.459  15.068  18.251  0.00  0.00    -0.255 OA
BRANCH   3   2
ATOM      1  C   UNL     1      46.670  16.806  16.686  0.00  0.00    +0.178 C 
ATOM      2  C   UNL     1      46.967  15.372  17.041  0.00  0.00    +0.458 C 
ATOM     24  O   UNL     1      46.761  14.492  16.233  0.00  0.00    -0.502 OA
ENDBRANCH   3   2
ENDBRANCH   4   3
ENDBRANCH   9   8
ENDBRANCH  10   9
TORSDOF 4
ENDMDL
MODEL 4
REMARK VINA RESULT:      -5.3      4.091      6.344
REMARK  Name = ZINC95485983
REMARK  8 active torsions:
REMARK  status: ('A' for Active; 'I' for Inactive)
REMARK    1  A    between atoms: C1_1  and  C2_2
REMARK    2  A    between atoms: C2_2  and  O2_4
REMARK    3  A    between atoms: O2_4  and  C3_5
REMARK    4  A    between atoms: C6_9  and  C7_10
REMARK    5  A    between atoms: C7_10  and  C8_11
REMARK    6  A    between atoms: C14_19  and  C21_26
REMARK    7  A    between atoms: C18_23  and  C19_24
REMARK    8  A    between atoms: C18_23  and  C20_25
REMARK                            x       y       z     vdW  Elec       q    Type
REMARK                         _______ _______ _______ _____ _____    ______ ____
ROOT
ATOM     10  C   UNL     1      44.899  17.768  19.563  0.00  0.00    +0.038 C 
ATOM     11  C   UNL     1      45.868  18.034  18.440  0.00  0.00    -0.105 C 
ATOM     12  C   UNL     1      46.167  16.855  17.540  0.00  0.00    +0.044 C 
ATOM     13  C   UNL     1      46.664  15.709  18.425  0.00  0.00    +0.016 C 
ATOM     14  C   UNL     1      45.670  15.371  19.546  0.00  0.00    +0.018 C 
ATOM     15  C   UNL     1      46.248  14.193  20.332  0.00  0.00    -0.053 C 
ATOM     16  C   UNL     1      46.704  13.089  19.351  0.00  0.00    +0.012 C 
ATOM     17  C   UNL     1      45.223  13.523  21.249  0.00  0.00    +0.022 C 
ATOM     18  C   UNL     1      47.476  14.619  21.133  0.00  0.00    +0.010 C 
ATOM     19  C   UNL     1      47.189  15.832  22.006  0.00  0.00    +0.000 C 
ATOM     20  C   UNL     1      46.691  16.997  21.149  0.00  0.00    +0.018 C 
ATOM     21  C   UNL     1      46.414  19.204  18.250  0.00  0.00    -0.011 C 
ATOM     22  C   UNL     1      45.413  16.598  20.417  0.00  0.00    -0.032 C 
ATOM     23  C   UNL     1      44.300  16.353  21.446  0.00  0.00    +0.020 C 
ENDROOT
BRANCH  10   9
ATOM      9  C   UNL     1      44.709  19.020  20.414  0.00  0.00    +0.115 C 
BRANCH   9   8
ATOM      4  C   UNL     1      43.396  21.039  19.405  0.00  0.00    -0.010 A 
ATOM      5  C   UNL     1      42.094  21.288  19.157  0.00  0.00    +0.160 A 
ATOM      6  O   UNL     1      41.377  20.218  19.547  0.00  0.00    -0.165 OA
ATOM      7  C   UNL     1      42.202  19.282  20.045  0.00  0.00    +0.187 A 
ATOM      8  C   UNL     1      43.463  19.744  19.972  0.00  0.00    -0.162 A 
BRANCH   4   3
ATOM      3  O   UNL     1      44.443  21.872  19.155  0.00  0.00    -0.255 OA
BRANCH   3   2
ATOM      1  C   UNL     1      44.409  24.337  19.033  0.00  0.00    +0.178 C 
ATOM      2  C   UNL     1      44.485  23.045  19.805  0.00  0.00    +0.458 C 
ATOM     24  O   UNL     1      44.585  23.065  21.012  0.00  0.00    -0.502 OA
ENDBRANCH   3   2
ENDBRANCH   4   3
ENDBRANCH   9   8
ENDBRANCH  10   9
TORSDOF 4
ENDMDL
MODEL 5
REMARK VINA RESULT:      -5.2      2.585      4.792
REMARK  Name = ZINC95485983
REMARK  8 active torsions:
REMARK  status: ('A' for Active; 'I' for Inactive)
REMARK    1  A    between atoms: C1_1  and  C2_2
REMARK    2  A    between atoms: C2_2  and  O2_4
REMARK    3  A    between atoms: O2_4  and  C3_5
REMARK    4  A    between atoms: C6_9  and  C7_10
REMARK    5  A    between atoms: C7_10  and  C8_11
REMARK    6  A    between atoms: C14_19  and  C21_26
REMARK    7  A    between atoms: C18_23  and  C19_24
REMARK    8  A    between atoms: C18_23  and  C20_25
REMARK                            x       y       z     vdW  Elec       q    Type
REMARK                         _______ _______ _______ _____ _____    ______ ____
ROOT
ATOM     10  C   UNL     1      46.727  20.158  19.627  0.00  0.00    +0.038 C 
ATOM     11  C   UNL     1      47.965  20.828  20.164  0.00  0.00    -0.105 C 
ATOM     12  C   UNL     1      49.178  20.781  19.261  0.00  0.00    +0.044 C 
ATOM     13  C   UNL     1      49.456  19.312  18.932  0.00  0.00    +0.016 C 
ATOM     14  C   UNL     1      48.231  18.613  18.326  0.00  0.00    +0.018 C 
ATOM     15  C   UNL     1      48.637  17.175  18.000  0.00  0.00    -0.053 C 
ATOM     16  C   UNL     1      49.978  17.177  17.231  0.00  0.00    +0.012 C 
ATOM     17  C   UNL     1      47.643  16.464  17.079  0.00  0.00    +0.022 C 
ATOM     18  C   UNL     1      48.850  16.364  19.276  0.00  0.00    +0.010 C 
ATOM     19  C   UNL     1      47.648  16.445  20.205  0.00  0.00    +0.000 C 
ATOM     20  C   UNL     1      47.344  17.904  20.554  0.00  0.00    +0.018 C 
ATOM     21  C   UNL     1      47.994  21.415  21.329  0.00  0.00    -0.011 C 
ATOM     22  C   UNL     1      47.045  18.694  19.284  0.00  0.00    -0.032 C 
ATOM     23  C   UNL     1      45.754  18.156  18.650  0.00  0.00    +0.020 C 
ENDROOT
BRANCH  10   9
ATOM      9  C   UNL     1      45.590  20.243  20.641  0.00  0.00    +0.115 C 
BRANCH   9   8
ATOM      4  C   UNL     1      43.383  21.046  19.499  0.00  0.00    -0.010 A 
ATOM      5  C   UNL     1      42.805  22.250  19.305  0.00  0.00    +0.160 A 
ATOM      6  O   UNL     1      43.604  23.192  19.837  0.00  0.00    -0.165 OA
ATOM      7  C   UNL     1      44.690  22.612  20.372  0.00  0.00    +0.187 A 
ATOM      8  C   UNL     1      44.594  21.282  20.192  0.00  0.00    -0.162 A 
BRANCH   4   3
ATOM      3  O   UNL     1      42.892  19.838  19.107  0.00  0.00    -0.255 OA
BRANCH   3   2
ATOM      1  C   UNL     1      41.191  19.132  20.750  0.00  0.00    +0.178 C 
ATOM      2  C   UNL     1      41.605  19.566  19.368  0.00  0.00    +0.458 C 
ATOM     24  O   UNL     1      40.774  19.669  18.491  0.00  0.00    -0.502 OA
ENDBRANCH   3   2
ENDBRANCH   4   3
ENDBRANCH   9   8
ENDBRANCH  10   9
TORSDOF 4
ENDMDL
MODEL 6
REMARK VINA RESULT:      -5.1      2.540      4.781
REMARK  Name = ZINC95485983
REMARK  8 active torsions:
REMARK  status: ('A' for Active; 'I' for Inactive)
REMARK    1  A    between atoms: C1_1  and  C2_2
REMARK    2  A    between atoms: C2_2  and  O2_4
REMARK    3  A    between atoms: O2_4  and  C3_5
REMARK    4  A    between atoms: C6_9  and  C7_10
REMARK    5  A    between atoms: C7_10  and  C8_11
REMARK    6  A    between atoms: C14_19  and  C21_26
REMARK    7  A    between atoms: C18_23  and  C19_24
REMARK    8  A    between atoms: C18_23  and  C20_25
REMARK                            x       y       z     vdW  Elec       q    Type
REMARK                         _______ _______ _______ _____ _____    ______ ____
ROOT
ATOM     10  C   UNL     1      46.158  18.465  19.913  0.00  0.00    +0.038 C 
ATOM     11  C   UNL     1      46.572  17.307  19.042  0.00  0.00    -0.105 C 
ATOM     12  C   UNL     1      47.719  16.472  19.566  0.00  0.00    +0.044 C 
ATOM     13  C   UNL     1      48.902  17.411  19.817  0.00  0.00    +0.016 C 
ATOM     14  C   UNL     1      48.531  18.572  20.751  0.00  0.00    +0.018 C 
ATOM     15  C   UNL     1      49.791  19.413  20.961  0.00  0.00    -0.053 C 
ATOM     16  C   UNL     1      50.977  18.488  21.320  0.00  0.00    +0.012 C 
ATOM     17  C   UNL     1      49.672  20.390  22.132  0.00  0.00    +0.022 C 
ATOM     18  C   UNL     1      50.172  20.159  19.685  0.00  0.00    +0.010 C 
ATOM     19  C   UNL     1      49.005  20.965  19.132  0.00  0.00    +0.000 C 
ATOM     20  C   UNL     1      47.805  20.053  18.870  0.00  0.00    +0.018 C 
ATOM     21  C   UNL     1      45.980  17.036  17.911  0.00  0.00    -0.011 C 
ATOM     22  C   UNL     1      47.372  19.375  20.166  0.00  0.00    -0.032 C 
ATOM     23  C   UNL     1      46.857  20.442  21.143  0.00  0.00    +0.020 C 
ENDROOT
BRANCH  10   9
ATOM      9  C   UNL     1      45.021  19.246  19.261  0.00  0.00    +0.115 C 
BRANCH   9   8
ATOM      4  C   UNL     1      42.456  19.482  19.691  0.00  0.00    -0.010 A 
ATOM      5  C   UNL     1      41.619  19.059  20.662  0.00  0.00    +0.160 A 
ATOM      6  O   UNL     1      42.339  18.382  21.574  0.00  0.00    -0.165 OA
ATOM      7  C   UNL     1      43.630  18.363  21.205  0.00  0.00    +0.187 A 
ATOM      8  C   UNL     1      43.750  19.026  20.041  0.00  0.00    -0.162 A 
BRANCH   4   3
ATOM      3  O   UNL     1      42.119  20.203  18.587  0.00  0.00    -0.255 OA
BRANCH   3   2
ATOM      1  C   UNL     1      40.011  21.485  18.515  0.00  0.00    +0.178 C 
ATOM      2  C   UNL     1      41.492  21.376  18.767  0.00  0.00    +0.458 C 
ATOM     24  O   UNL     1      42.118  22.347  19.133  0.00  0.00    -0.502 OA
ENDBRANCH   3   2
ENDBRANCH   4   3
ENDBRANCH   9   8
ENDBRANCH  10   9
TORSDOF 4
ENDMDL
MODEL 7
REMARK VINA RESULT:      -5.1      3.111      6.582
REMARK  Name = ZINC95485983
REMARK  8 active torsions:
REMARK  status: ('A' for Active; 'I' for Inactive)
REMARK    1  A    between atoms: C1_1  and  C2_2
REMARK    2  A    between atoms: C2_2  and  O2_4
REMARK    3  A    between atoms: O2_4  and  C3_5
REMARK    4  A    between atoms: C6_9  and  C7_10
REMARK    5  A    between atoms: C7_10  and  C8_11
REMARK    6  A    between atoms: C14_19  and  C21_26
REMARK    7  A    between atoms: C18_23  and  C19_24
REMARK    8  A    between atoms: C18_23  and  C20_25
REMARK                            x       y       z     vdW  Elec       q    Type
REMARK                         _______ _______ _______ _____ _____    ______ ____
ROOT
ATOM     10  C   UNL     1      47.918  19.601  19.201  0.00  0.00    +0.038 C 
ATOM     11  C   UNL     1      47.409  18.354  18.526  0.00  0.00    -0.105 C 
ATOM     12  C   UNL     1      46.143  18.520  17.714  0.00  0.00    +0.044 C 
ATOM     13  C   UNL     1      45.074  19.113  18.635  0.00  0.00    +0.016 C 
ATOM     14  C   UNL     1      45.539  20.420  19.294  0.00  0.00    +0.018 C 
ATOM     15  C   UNL     1      44.383  20.939  20.150  0.00  0.00    -0.053 C 
ATOM     16  C   UNL     1      43.076  20.918  19.324  0.00  0.00    +0.012 C 
ATOM     17  C   UNL     1      44.564  22.395  20.584  0.00  0.00    +0.022 C 
ATOM     18  C   UNL     1      44.159  20.047  21.368  0.00  0.00    +0.010 C 
ATOM     19  C   UNL     1      45.442  19.843  22.163  0.00  0.00    +0.000 C 
ATOM     20  C   UNL     1      46.532  19.249  21.268  0.00  0.00    +0.018 C 
ATOM     21  C   UNL     1      48.017  17.204  18.629  0.00  0.00    -0.011 C 
ATOM     22  C   UNL     1      46.815  20.185  20.097  0.00  0.00    -0.032 C 
ATOM     23  C   UNL     1      47.408  21.496  20.635  0.00  0.00    +0.020 C 
ENDROOT
BRANCH  10   9
ATOM      9  C   UNL     1      49.174  19.296  20.013  0.00  0.00    +0.115 C 
BRANCH   9   8
ATOM      4  C   UNL     1      50.920  19.936  18.179  0.00  0.00    -0.010 A 
ATOM      5  C   UNL     1      51.918  20.840  18.102  0.00  0.00    +0.160 A 
ATOM      6  O   UNL     1      51.966  21.517  19.264  0.00  0.00    -0.165 OA
ATOM      7  C   UNL     1      51.011  21.059  20.090  0.00  0.00    +0.187 A 
ATOM      8  C   UNL     1      50.333  20.084  19.459  0.00  0.00    -0.162 A 
BRANCH   4   3
ATOM      3  O   UNL     1      50.546  19.055  17.211  0.00  0.00    -0.255 OA
BRANCH   3   2
ATOM      1  C   UNL     1      51.890  17.071  17.804  0.00  0.00    +0.178 C 
ATOM      2  C   UNL     1      51.434  18.125  16.828  0.00  0.00    +0.458 C 
ATOM     24  O   UNL     1      51.871  18.134  15.697  0.00  0.00    -0.502 OA
ENDBRANCH   3   2
ENDBRANCH   4   3
ENDBRANCH   9   8
ENDBRANCH  10   9
TORSDOF 4
ENDMDL
MODEL 8
REMARK VINA RESULT:      -5.1      3.119      6.408
REMARK  Name = ZINC95485983
REMARK  8 active torsions:
REMARK  status: ('A' for Active; 'I' for Inactive)
REMARK    1  A    between atoms: C1_1  and  C2_2
REMARK    2  A    between atoms: C2_2  and  O2_4
REMARK    3  A    between atoms: O2_4  and  C3_5
REMARK    4  A    between atoms: C6_9  and  C7_10
REMARK    5  A    between atoms: C7_10  and  C8_11
REMARK    6  A    between atoms: C14_19  and  C21_26
REMARK    7  A    between atoms: C18_23  and  C19_24
REMARK    8  A    between atoms: C18_23  and  C20_25
REMARK                            x       y       z     vdW  Elec       q    Type
REMARK                         _______ _______ _______ _____ _____    ______ ____
ROOT
ATOM     10  C   UNL     1      48.125  19.772  20.332  0.00  0.00    +0.038 C 
ATOM     11  C   UNL     1      47.050  20.585  21.004  0.00  0.00    -0.105 C 
ATOM     12  C   UNL     1      46.330  19.902  22.146  0.00  0.00    +0.044 C 
ATOM     13  C   UNL     1      45.761  18.584  21.614  0.00  0.00    +0.016 C 
ATOM     14  C   UNL     1      46.844  17.702  20.974  0.00  0.00    +0.018 C 
ATOM     15  C   UNL     1      46.171  16.405  20.522  0.00  0.00    -0.053 C 
ATOM     16  C   UNL     1      45.304  15.843  21.671  0.00  0.00    +0.012 C 
ATOM     17  C   UNL     1      47.170  15.296  20.189  0.00  0.00    +0.022 C 
ATOM     18  C   UNL     1      45.242  16.655  19.337  0.00  0.00    +0.010 C 
ATOM     19  C   UNL     1      45.953  17.382  18.204  0.00  0.00    +0.000 C 
ATOM     20  C   UNL     1      46.533  18.706  18.704  0.00  0.00    +0.018 C 
ATOM     21  C   UNL     1      46.756  21.802  20.633  0.00  0.00    -0.011 C 
ATOM     22  C   UNL     1      47.528  18.447  19.832  0.00  0.00    -0.032 C 
ATOM     23  C   UNL     1      48.729  17.669  19.273  0.00  0.00    +0.020 C 
ENDROOT
BRANCH  10   9
ATOM      9  C   UNL     1      48.748  20.556  19.180  0.00  0.00    +0.115 C 
BRANCH   9   8
ATOM      4  C   UNL     1      51.233  20.995  18.506  0.00  0.00    -0.010 A 
ATOM      5  C   UNL     1      52.381  21.163  19.194  0.00  0.00    +0.160 A 
ATOM      6  O   UNL     1      52.106  21.064  20.507  0.00  0.00    -0.165 OA
ATOM      7  C   UNL     1      50.793  20.832  20.675  0.00  0.00    +0.187 A 
ATOM      8  C   UNL     1      50.210  20.787  19.463  0.00  0.00    -0.162 A 
BRANCH   4   3
ATOM      3  O   UNL     1      51.086  21.023  17.153  0.00  0.00    -0.255 OA
BRANCH   3   2
ATOM      1  C   UNL     1      51.080  18.623  16.574  0.00  0.00    +0.178 C 
ATOM      2  C   UNL     1      51.624  20.022  16.440  0.00  0.00    +0.458 C 
ATOM     24  O   UNL     1      52.549  20.244  15.688  0.00  0.00    -0.502 OA
ENDBRANCH   3   2
ENDBRANCH   4   3
ENDBRANCH   9   8
ENDBRANCH  10   9
TORSDOF 4
ENDMDL
MODEL 9
REMARK VINA RESULT:      -5.0      3.590      5.373
REMARK  Name = ZINC95485983
REMARK  8 active torsions:
REMARK  status: ('A' for Active; 'I' for Inactive)
REMARK    1  A    between atoms: C1_1  and  C2_2
REMARK    2  A    between atoms: C2_2  and  O2_4
REMARK    3  A    between atoms: O2_4  and  C3_5
REMARK    4  A    between atoms: C6_9  and  C7_10
REMARK    5  A    between atoms: C7_10  and  C8_11
REMARK    6  A    between atoms: C14_19  and  C21_26
REMARK    7  A    between atoms: C18_23  and  C19_24
REMARK    8  A    between atoms: C18_23  and  C20_25
REMARK                            x       y       z     vdW  Elec       q    Type
REMARK                         _______ _______ _______ _____ _____    ______ ____
ROOT
ATOM     10  C   UNL     1      45.548  17.197  19.255  0.00  0.00    +0.038 C 
ATOM     11  C   UNL     1      46.390  18.082  18.372  0.00  0.00    -0.105 C 
ATOM     12  C   UNL     1      46.613  17.579  16.963  0.00  0.00    +0.044 C 
ATOM     13  C   UNL     1      47.221  16.177  17.062  0.00  0.00    +0.016 C 
ATOM     14  C   UNL     1      46.356  15.230  17.907  0.00  0.00    +0.018 C 
ATOM     15  C   UNL     1      47.034  13.859  17.899  0.00  0.00    -0.053 C 
ATOM     16  C   UNL     1      47.404  13.472  16.448  0.00  0.00    +0.012 C 
ATOM     17  C   UNL     1      46.123  12.736  18.397  0.00  0.00    +0.022 C 
ATOM     18  C   UNL     1      48.331  13.885  18.703  0.00  0.00    +0.010 C 
ATOM     19  C   UNL     1      48.116  14.432  20.107  0.00  0.00    +0.000 C 
ATOM     20  C   UNL     1      47.510  15.836  20.042  0.00  0.00    +0.018 C 
ATOM     21  C   UNL     1      46.892  19.213  18.790  0.00  0.00    -0.011 C 
ATOM     22  C   UNL     1      46.170  15.793  19.313  0.00  0.00    -0.032 C 
ATOM     23  C   UNL     1      45.175  14.964  20.140  0.00  0.00    +0.020 C 
ENDROOT
BRANCH  10   9
ATOM      9  C   UNL     1      45.426  17.796  20.653  0.00  0.00    +0.115 C 
BRANCH   9   8
ATOM      4  C   UNL     1      43.148  19.029  20.322  0.00  0.00    -0.010 A 
ATOM      5  C   UNL     1      41.932  18.934  20.897  0.00  0.00    +0.160 A 
ATOM      6  O   UNL     1      41.985  17.979  21.843  0.00  0.00    -0.165 OA
ATOM      7  C   UNL     1      43.222  17.457  21.885  0.00  0.00    +0.187 A 
ATOM      8  C   UNL     1      43.976  18.072  20.956  0.00  0.00    -0.162 A 
BRANCH   4   3
ATOM      3  O   UNL     1      43.508  19.879  19.321  0.00  0.00    -0.255 OA
BRANCH   3   2
ATOM      1  C   UNL     1      44.694  21.794  20.330  0.00  0.00    +0.178 C 
ATOM      2  C   UNL     1      43.528  21.193  19.587  0.00  0.00    +0.458 C 
ATOM     24  O   UNL     1      42.609  21.898  19.230  0.00  0.00    -0.502 OA
ENDBRANCH   3   2
ENDBRANCH   4   3
ENDBRANCH   9   8
ENDBRANCH  10   9
TORSDOF 4
ENDMDL
