MODEL 1
REMARK VINA RESULT:      -6.0      0.000      0.000
REMARK  Name = ZINC95485918
REMARK  8 active torsions:
REMARK  status: ('A' for Active; 'I' for Inactive)
REMARK    1  A    between atoms: C1_1  and  C2_2
REMARK    2  A    between atoms: C2_2  and  C3_3
REMARK    3  A    between atoms: C2_2  and  C4_4
REMARK    4  A    between atoms: C2_2  and  C6_6
REMARK    5  A    between atoms: C7_7  and  O5_24
REMARK    6  A    between atoms: C11_11  and  O1_12
REMARK    7  A    between atoms: C15_17  and  O4_22
REMARK    8  A    between atoms: O4_22  and  C19_23
REMARK                            x       y       z     vdW  Elec       q    Type
REMARK                         _______ _______ _______ _____ _____    ______ ____
ROOT
ATOM      3  C   UNL     1      50.146  18.955  18.253  0.00  0.00    -0.156 A 
ATOM      4  C   UNL     1      50.396  20.114  18.980  0.00  0.00    +0.200 A 
ATOM      7  C   UNL     1      49.356  20.834  19.547  0.00  0.00    -0.036 A 
ATOM      8  C   UNL     1      48.044  20.407  19.392  0.00  0.00    +0.192 A 
ATOM      9  C   UNL     1      47.791  19.240  18.648  0.00  0.00    -0.267 A 
ATOM     10  C   UNL     1      46.393  18.811  18.469  0.00  0.00    +0.443 A 
ATOM     11  C   UNL     1      45.359  19.800  18.848  0.00  0.00    -0.181 A 
ATOM     12  C   UNL     1      44.027  19.620  18.485  0.00  0.00    +0.087 A 
ATOM     13  C   UNL     1      43.086  20.566  18.850  0.00  0.00    +0.103 A 
ATOM     16  C   UNL     1      43.475  21.687  19.577  0.00  0.00    +0.003 A 
ATOM     17  C   UNL     1      44.792  21.869  19.940  0.00  0.00    +0.050 A 
ATOM     18  C   UNL     1      45.752  20.928  19.585  0.00  0.00    +0.116 A 
ATOM     19  O   UNL     1      46.105  17.710  18.036  0.00  0.00    -0.429 OA
ATOM     20  O   UNL     1      47.037  21.105  19.953  0.00  0.00    -0.223 OA
ATOM     21  C   UNL     1      48.847  18.515  18.080  0.00  0.00    +0.224 A 
ENDROOT
BRANCH   3   2
ATOM      1  C   UNL     1      51.041  16.683  17.823  0.00  0.00    +0.046 C 
ATOM      2  C   UNL     1      51.290  18.183  17.649  0.00  0.00    +0.016 C 
ATOM     26  C   UNL     1      52.593  18.568  18.355  0.00  0.00    +0.044 C 
BRANCH   2  24
ATOM     24  C   UNL     1      51.398  18.509  16.182  0.00  0.00    +0.006 C 
ATOM     25  C   UNL     1      52.133  19.520  15.788  0.00  0.00    -0.030 C 
ENDBRANCH   2  24
ENDBRANCH   3   2
BRANCH   4   5
ATOM      5  O   UNL     1      51.673  20.545  19.138  0.00  0.00    -0.481 OA
ATOM      6  H   UNL     1      52.145  20.119  19.867  0.00  0.00    +0.400 HD
ENDBRANCH   4   5
BRANCH  13  14
ATOM     14  O   UNL     1      41.783  20.400  18.502  0.00  0.00    -0.311 OA
ATOM     15  C   UNL     1      40.888  21.470  18.808  0.00  0.00    +0.246 C 
ENDBRANCH  13  14
BRANCH  21  22
ATOM     22  O   UNL     1      48.597  17.386  17.371  0.00  0.00    -0.463 OA
ATOM     23  H   UNL     1      48.049  16.740  17.838  0.00  0.00    +0.401 HD
ENDBRANCH  21  22
TORSDOF 5
ENDMDL
MODEL 2
REMARK VINA RESULT:      -5.8      3.830      7.596
REMARK  Name = ZINC95485918
REMARK  8 active torsions:
REMARK  status: ('A' for Active; 'I' for Inactive)
REMARK    1  A    between atoms: C1_1  and  C2_2
REMARK    2  A    between atoms: C2_2  and  C3_3
REMARK    3  A    between atoms: C2_2  and  C4_4
REMARK    4  A    between atoms: C2_2  and  C6_6
REMARK    5  A    between atoms: C7_7  and  O5_24
REMARK    6  A    between atoms: C11_11  and  O1_12
REMARK    7  A    between atoms: C15_17  and  O4_22
REMARK    8  A    between atoms: O4_22  and  C19_23
REMARK                            x       y       z     vdW  Elec       q    Type
REMARK                         _______ _______ _______ _____ _____    ______ ____
ROOT
ATOM      3  C   UNL     1      44.740  18.537  19.584  0.00  0.00    -0.156 A 
ATOM      4  C   UNL     1      44.363  17.701  20.629  0.00  0.00    +0.200 A 
ATOM      7  C   UNL     1      44.724  16.363  20.632  0.00  0.00    -0.036 A 
ATOM      8  C   UNL     1      45.468  15.837  19.585  0.00  0.00    +0.192 A 
ATOM      9  C   UNL     1      45.840  16.680  18.523  0.00  0.00    -0.267 A 
ATOM     10  C   UNL     1      46.609  16.105  17.406  0.00  0.00    +0.443 A 
ATOM     11  C   UNL     1      46.677  14.628  17.361  0.00  0.00    -0.181 A 
ATOM     12  C   UNL     1      47.140  13.964  16.227  0.00  0.00    +0.087 A 
ATOM     13  C   UNL     1      47.187  12.582  16.216  0.00  0.00    +0.103 A 
ATOM     16  C   UNL     1      46.773  11.864  17.334  0.00  0.00    +0.003 A 
ATOM     17  C   UNL     1      46.314  12.515  18.459  0.00  0.00    +0.050 A 
ATOM     18  C   UNL     1      46.263  13.905  18.491  0.00  0.00    +0.116 A 
ATOM     19  O   UNL     1      47.154  16.802  16.569  0.00  0.00    -0.429 OA
ATOM     20  O   UNL     1      45.825  14.538  19.599  0.00  0.00    -0.223 OA
ATOM     21  C   UNL     1      45.475  18.034  18.527  0.00  0.00    +0.224 A 
ENDROOT
BRANCH   3   2
ATOM      1  C   UNL     1      45.465  20.834  18.991  0.00  0.00    +0.046 C 
ATOM      2  C   UNL     1      44.342  19.991  19.600  0.00  0.00    +0.016 C 
ATOM     26  C   UNL     1      44.097  20.436  21.044  0.00  0.00    +0.044 C 
BRANCH   2  24
ATOM     24  C   UNL     1      43.081  20.176  18.795  0.00  0.00    +0.006 C 
ATOM     25  C   UNL     1      41.925  20.273  19.404  0.00  0.00    -0.030 C 
ENDBRANCH   2  24
ENDBRANCH   3   2
BRANCH   4   5
ATOM      5  O   UNL     1      43.633  18.202  21.658  0.00  0.00    -0.481 OA
ATOM      6  H   UNL     1      43.037  17.558  22.067  0.00  0.00    +0.400 HD
ENDBRANCH   4   5
BRANCH  13  14
ATOM     14  O   UNL     1      47.638  11.925  15.116  0.00  0.00    -0.311 OA
ATOM     15  C   UNL     1      48.027  12.723  13.997  0.00  0.00    +0.246 C 
ENDBRANCH  13  14
BRANCH  21  22
ATOM     22  O   UNL     1      45.845  18.844  17.503  0.00  0.00    -0.463 OA
ATOM     23  H   UNL     1      46.787  19.061  17.494  0.00  0.00    +0.401 HD
ENDBRANCH  21  22
TORSDOF 5
ENDMDL
MODEL 3
REMARK VINA RESULT:      -5.7      3.669      7.135
REMARK  Name = ZINC95485918
REMARK  8 active torsions:
REMARK  status: ('A' for Active; 'I' for Inactive)
REMARK    1  A    between atoms: C1_1  and  C2_2
REMARK    2  A    between atoms: C2_2  and  C3_3
REMARK    3  A    between atoms: C2_2  and  C4_4
REMARK    4  A    between atoms: C2_2  and  C6_6
REMARK    5  A    between atoms: C7_7  and  O5_24
REMARK    6  A    between atoms: C11_11  and  O1_12
REMARK    7  A    between atoms: C15_17  and  O4_22
REMARK    8  A    between atoms: O4_22  and  C19_23
REMARK                            x       y       z     vdW  Elec       q    Type
REMARK                         _______ _______ _______ _____ _____    ______ ____
ROOT
ATOM      3  C   UNL     1      44.610  19.778  20.069  0.00  0.00    -0.156 A 
ATOM      4  C   UNL     1      43.920  19.081  21.055  0.00  0.00    +0.200 A 
ATOM      7  C   UNL     1      44.025  17.703  21.155  0.00  0.00    -0.036 A 
ATOM      8  C   UNL     1      44.823  16.996  20.266  0.00  0.00    +0.192 A 
ATOM      9  C   UNL     1      45.513  17.699  19.262  0.00  0.00    -0.267 A 
ATOM     10  C   UNL     1      46.337  16.936  18.310  0.00  0.00    +0.443 A 
ATOM     11  C   UNL     1      46.141  15.469  18.315  0.00  0.00    -0.181 A 
ATOM     12  C   UNL     1      46.655  14.672  17.296  0.00  0.00    +0.087 A 
ATOM     13  C   UNL     1      46.450  13.305  17.329  0.00  0.00    +0.103 A 
ATOM     16  C   UNL     1      45.733  12.735  18.377  0.00  0.00    +0.003 A 
ATOM     17  C   UNL     1      45.222  13.519  19.388  0.00  0.00    +0.050 A 
ATOM     18  C   UNL     1      45.421  14.896  19.375  0.00  0.00    +0.116 A 
ATOM     19  O   UNL     1      47.131  17.478  17.562  0.00  0.00    -0.429 OA
ATOM     20  O   UNL     1      44.929  15.657  20.374  0.00  0.00    -0.223 OA
ATOM     21  C   UNL     1      45.406  19.094  19.168  0.00  0.00    +0.224 A 
ENDROOT
BRANCH   3   2
ATOM      1  C   UNL     1      43.084  21.646  19.495  0.00  0.00    +0.046 C 
ATOM      2  C   UNL     1      44.488  21.277  19.979  0.00  0.00    +0.016 C 
ATOM     26  C   UNL     1      45.526  21.814  18.990  0.00  0.00    +0.044 C 
BRANCH   2  24
ATOM     24  C   UNL     1      44.728  21.883  21.338  0.00  0.00    +0.006 C 
ATOM     25  C   UNL     1      45.946  22.194  21.710  0.00  0.00    -0.030 C 
ENDBRANCH   2  24
ENDBRANCH   3   2
BRANCH   4   5
ATOM      5  O   UNL     1      43.135  19.759  21.930  0.00  0.00    -0.481 OA
ATOM      6  H   UNL     1      43.069  19.345  22.802  0.00  0.00    +0.400 HD
ENDBRANCH   4   5
BRANCH  13  14
ATOM     14  O   UNL     1      46.949  12.517  16.340  0.00  0.00    -0.311 OA
ATOM     15  C   UNL     1      46.274  11.283  16.090  0.00  0.00    +0.246 C 
ENDBRANCH  13  14
BRANCH  21  22
ATOM     22  O   UNL     1      46.081  19.767  18.204  0.00  0.00    -0.463 OA
ATOM     23  H   UNL     1      45.583  19.883  17.382  0.00  0.00    +0.401 HD
ENDBRANCH  21  22
TORSDOF 5
ENDMDL
MODEL 4
REMARK VINA RESULT:      -5.6      3.483      6.028
REMARK  Name = ZINC95485918
REMARK  8 active torsions:
REMARK  status: ('A' for Active; 'I' for Inactive)
REMARK    1  A    between atoms: C1_1  and  C2_2
REMARK    2  A    between atoms: C2_2  and  C3_3
REMARK    3  A    between atoms: C2_2  and  C4_4
REMARK    4  A    between atoms: C2_2  and  C6_6
REMARK    5  A    between atoms: C7_7  and  O5_24
REMARK    6  A    between atoms: C11_11  and  O1_12
REMARK    7  A    between atoms: C15_17  and  O4_22
REMARK    8  A    between atoms: O4_22  and  C19_23
REMARK                            x       y       z     vdW  Elec       q    Type
REMARK                         _______ _______ _______ _____ _____    ______ ____
ROOT
ATOM      3  C   UNL     1      50.528  19.281  18.039  0.00  0.00    -0.156 A 
ATOM      4  C   UNL     1      49.305  19.533  18.652  0.00  0.00    +0.200 A 
ATOM      7  C   UNL     1      48.340  18.543  18.743  0.00  0.00    -0.036 A 
ATOM      8  C   UNL     1      48.582  17.280  18.219  0.00  0.00    +0.192 A 
ATOM      9  C   UNL     1      49.814  17.028  17.590  0.00  0.00    -0.267 A 
ATOM     10  C   UNL     1      50.049  15.692  17.016  0.00  0.00    +0.443 A 
ATOM     11  C   UNL     1      48.860  14.820  16.899  0.00  0.00    -0.181 A 
ATOM     12  C   UNL     1      48.897  13.652  16.142  0.00  0.00    +0.087 A 
ATOM     13  C   UNL     1      47.766  12.862  16.049  0.00  0.00    +0.103 A 
ATOM     16  C   UNL     1      46.601  13.235  16.712  0.00  0.00    +0.003 A 
ATOM     17  C   UNL     1      46.559  14.389  17.464  0.00  0.00    +0.050 A 
ATOM     18  C   UNL     1      47.687  15.197  17.572  0.00  0.00    +0.116 A 
ATOM     19  O   UNL     1      51.155  15.328  16.658  0.00  0.00    -0.429 OA
ATOM     20  O   UNL     1      47.643  16.318  18.319  0.00  0.00    -0.223 OA
ATOM     21  C   UNL     1      50.788  18.033  17.504  0.00  0.00    +0.224 A 
ENDROOT
BRANCH   3   2
ATOM      1  C   UNL     1      51.399  21.132  16.638  0.00  0.00    +0.046 C 
ATOM      2  C   UNL     1      51.567  20.368  17.953  0.00  0.00    +0.016 C 
ATOM     26  C   UNL     1      52.964  19.743  18.005  0.00  0.00    +0.044 C 
BRANCH   2  24
ATOM     24  C   UNL     1      51.398  21.317  19.112  0.00  0.00    +0.006 C 
ATOM     25  C   UNL     1      52.394  21.527  19.938  0.00  0.00    -0.030 C 
ENDBRANCH   2  24
ENDBRANCH   3   2
BRANCH   4   5
ATOM      5  O   UNL     1      49.055  20.764  19.166  0.00  0.00    -0.481 OA
ATOM      6  H   UNL     1      48.257  20.806  19.712  0.00  0.00    +0.400 HD
ENDBRANCH   4   5
BRANCH  13  14
ATOM     14  O   UNL     1      47.792  11.719  15.313  0.00  0.00    -0.311 OA
ATOM     15  C   UNL     1      46.641  10.877  15.380  0.00  0.00    +0.246 C 
ENDBRANCH  13  14
BRANCH  21  22
ATOM     22  O   UNL     1      51.978  17.781  16.904  0.00  0.00    -0.463 OA
ATOM     23  H   UNL     1      52.617  18.504  16.976  0.00  0.00    +0.401 HD
ENDBRANCH  21  22
TORSDOF 5
ENDMDL
MODEL 5
REMARK VINA RESULT:      -5.6      2.734      4.078
REMARK  Name = ZINC95485918
REMARK  8 active torsions:
REMARK  status: ('A' for Active; 'I' for Inactive)
REMARK    1  A    between atoms: C1_1  and  C2_2
REMARK    2  A    between atoms: C2_2  and  C3_3
REMARK    3  A    between atoms: C2_2  and  C4_4
REMARK    4  A    between atoms: C2_2  and  C6_6
REMARK    5  A    between atoms: C7_7  and  O5_24
REMARK    6  A    between atoms: C11_11  and  O1_12
REMARK    7  A    between atoms: C15_17  and  O4_22
REMARK    8  A    between atoms: O4_22  and  C19_23
REMARK                            x       y       z     vdW  Elec       q    Type
REMARK                         _______ _______ _______ _____ _____    ______ ____
ROOT
ATOM      3  C   UNL     1      50.535  19.341  18.012  0.00  0.00    -0.156 A 
ATOM      4  C   UNL     1      50.738  18.128  17.362  0.00  0.00    +0.200 A 
ATOM      7  C   UNL     1      49.796  17.115  17.444  0.00  0.00    -0.036 A 
ATOM      8  C   UNL     1      48.634  17.297  18.181  0.00  0.00    +0.192 A 
ATOM      9  C   UNL     1      48.434  18.520  18.846  0.00  0.00    -0.267 A 
ATOM     10  C   UNL     1      47.209  18.693  19.645  0.00  0.00    +0.443 A 
ATOM     11  C   UNL     1      46.431  17.463  19.910  0.00  0.00    -0.181 A 
ATOM     12  C   UNL     1      45.413  17.447  20.860  0.00  0.00    +0.087 A 
ATOM     13  C   UNL     1      44.708  16.280  21.087  0.00  0.00    +0.103 A 
ATOM     16  C   UNL     1      45.018  15.130  20.367  0.00  0.00    +0.003 A 
ATOM     17  C   UNL     1      46.024  15.139  19.425  0.00  0.00    +0.050 A 
ATOM     18  C   UNL     1      46.742  16.305  19.180  0.00  0.00    +0.116 A 
ATOM     19  O   UNL     1      46.857  19.782  20.062  0.00  0.00    -0.429 OA
ATOM     20  O   UNL     1      47.717  16.312  18.248  0.00  0.00    -0.223 OA
ATOM     21  C   UNL     1      49.388  19.543  18.757  0.00  0.00    +0.224 A 
ENDROOT
BRANCH   3   2
ATOM      1  C   UNL     1      51.363  21.207  16.602  0.00  0.00    +0.046 C 
ATOM      2  C   UNL     1      51.568  20.434  17.908  0.00  0.00    +0.016 C 
ATOM     26  C   UNL     1      52.968  19.814  17.919  0.00  0.00    +0.044 C 
BRANCH   2  24
ATOM     24  C   UNL     1      51.424  21.374  19.077  0.00  0.00    +0.006 C 
ATOM     25  C   UNL     1      52.450  21.608  19.858  0.00  0.00    -0.030 C 
ENDBRANCH   2  24
ENDBRANCH   3   2
BRANCH   4   5
ATOM      5  O   UNL     1      51.871  17.935  16.641  0.00  0.00    -0.481 OA
ATOM      6  H   UNL     1      52.383  18.742  16.490  0.00  0.00    +0.400 HD
ENDBRANCH   4   5
BRANCH  13  14
ATOM     14  O   UNL     1      43.712  16.254  22.012  0.00  0.00    -0.311 OA
ATOM     15  C   UNL     1      42.941  17.446  22.168  0.00  0.00    +0.246 C 
ENDBRANCH  13  14
BRANCH  21  22
ATOM     22  O   UNL     1      49.186  20.724  19.394  0.00  0.00    -0.463 OA
ATOM     23  H   UNL     1      48.639  21.349  18.898  0.00  0.00    +0.401 HD
ENDBRANCH  21  22
TORSDOF 5
ENDMDL
MODEL 6
REMARK VINA RESULT:      -5.3      3.607      4.981
REMARK  Name = ZINC95485918
REMARK  8 active torsions:
REMARK  status: ('A' for Active; 'I' for Inactive)
REMARK    1  A    between atoms: C1_1  and  C2_2
REMARK    2  A    between atoms: C2_2  and  C3_3
REMARK    3  A    between atoms: C2_2  and  C4_4
REMARK    4  A    between atoms: C2_2  and  C6_6
REMARK    5  A    between atoms: C7_7  and  O5_24
REMARK    6  A    between atoms: C11_11  and  O1_12
REMARK    7  A    between atoms: C15_17  and  O4_22
REMARK    8  A    between atoms: O4_22  and  C19_23
REMARK                            x       y       z     vdW  Elec       q    Type
REMARK                         _______ _______ _______ _____ _____    ______ ____
ROOT
ATOM      3  C   UNL     1      46.936  14.373  17.644  0.00  0.00    -0.156 A 
ATOM      4  C   UNL     1      47.972  15.035  16.995  0.00  0.00    +0.200 A 
ATOM      7  C   UNL     1      48.159  16.398  17.166  0.00  0.00    -0.036 A 
ATOM      8  C   UNL     1      47.309  17.124  17.989  0.00  0.00    +0.192 A 
ATOM      9  C   UNL     1      46.255  16.455  18.638  0.00  0.00    -0.267 A 
ATOM     10  C   UNL     1      45.345  17.240  19.489  0.00  0.00    +0.443 A 
ATOM     11  C   UNL     1      45.447  18.711  19.362  0.00  0.00    -0.181 A 
ATOM     12  C   UNL     1      44.476  19.548  19.906  0.00  0.00    +0.087 A 
ATOM     13  C   UNL     1      44.599  20.918  19.765  0.00  0.00    +0.103 A 
ATOM     16  C   UNL     1      45.689  21.451  19.084  0.00  0.00    +0.003 A 
ATOM     17  C   UNL     1      46.654  20.628  18.544  0.00  0.00    +0.050 A 
ATOM     18  C   UNL     1      46.549  19.247  18.678  0.00  0.00    +0.116 A 
ATOM     19  O   UNL     1      44.555  16.711  20.251  0.00  0.00    -0.429 OA
ATOM     20  O   UNL     1      47.502  18.446  18.159  0.00  0.00    -0.223 OA
ATOM     21  C   UNL     1      46.072  15.077  18.464  0.00  0.00    +0.224 A 
ENDROOT
BRANCH   3   2
ATOM      1  C   UNL     1      45.274  12.532  17.635  0.00  0.00    +0.046 C 
ATOM      2  C   UNL     1      46.750  12.890  17.451  0.00  0.00    +0.016 C 
ATOM     26  C   UNL     1      47.590  12.133  18.483  0.00  0.00    +0.044 C 
BRANCH   2  24
ATOM     24  C   UNL     1      47.193  12.505  16.063  0.00  0.00    +0.006 C 
ATOM     25  C   UNL     1      47.001  11.283  15.630  0.00  0.00    -0.030 C 
ENDBRANCH   2  24
ENDBRANCH   3   2
BRANCH   4   5
ATOM      5  O   UNL     1      48.809  14.339  16.185  0.00  0.00    -0.481 OA
ATOM      6  H   UNL     1      48.948  13.422  16.459  0.00  0.00    +0.400 HD
ENDBRANCH   4   5
BRANCH  13  14
ATOM     14  O   UNL     1      43.658  21.744  20.293  0.00  0.00    -0.311 OA
ATOM     15  C   UNL     1      43.464  23.003  19.647  0.00  0.00    +0.246 C 
ENDBRANCH  13  14
BRANCH  21  22
ATOM     22  O   UNL     1      45.059  14.436  19.099  0.00  0.00    -0.463 OA
ATOM     23  H   UNL     1      44.214  14.906  19.067  0.00  0.00    +0.401 HD
ENDBRANCH  21  22
TORSDOF 5
ENDMDL
MODEL 7
REMARK VINA RESULT:      -5.3      1.301      2.133
REMARK  Name = ZINC95485918
REMARK  8 active torsions:
REMARK  status: ('A' for Active; 'I' for Inactive)
REMARK    1  A    between atoms: C1_1  and  C2_2
REMARK    2  A    between atoms: C2_2  and  C3_3
REMARK    3  A    between atoms: C2_2  and  C4_4
REMARK    4  A    between atoms: C2_2  and  C6_6
REMARK    5  A    between atoms: C7_7  and  O5_24
REMARK    6  A    between atoms: C11_11  and  O1_12
REMARK    7  A    between atoms: C15_17  and  O4_22
REMARK    8  A    between atoms: O4_22  and  C19_23
REMARK                            x       y       z     vdW  Elec       q    Type
REMARK                         _______ _______ _______ _____ _____    ______ ____
ROOT
ATOM      3  C   UNL     1      48.676  18.413  18.595  0.00  0.00    -0.156 A 
ATOM      4  C   UNL     1      49.262  19.637  18.897  0.00  0.00    +0.200 A 
ATOM      7  C   UNL     1      48.486  20.721  19.276  0.00  0.00    -0.036 A 
ATOM      8  C   UNL     1      47.105  20.599  19.357  0.00  0.00    +0.192 A 
ATOM      9  C   UNL     1      46.512  19.363  19.042  0.00  0.00    -0.267 A 
ATOM     10  C   UNL     1      45.044  19.253  19.107  0.00  0.00    +0.443 A 
ATOM     11  C   UNL     1      44.304  20.529  19.222  0.00  0.00    -0.181 A 
ATOM     12  C   UNL     1      42.926  20.579  19.029  0.00  0.00    +0.087 A 
ATOM     13  C   UNL     1      42.265  21.789  19.139  0.00  0.00    +0.103 A 
ATOM     16  C   UNL     1      42.978  22.945  19.443  0.00  0.00    +0.003 A 
ATOM     17  C   UNL     1      44.341  22.901  19.636  0.00  0.00    +0.050 A 
ATOM     18  C   UNL     1      45.024  21.693  19.533  0.00  0.00    +0.116 A 
ATOM     19  O   UNL     1      44.475  18.177  19.068  0.00  0.00    -0.429 OA
ATOM     20  O   UNL     1      46.357  21.653  19.735  0.00  0.00    -0.223 OA
ATOM     21  C   UNL     1      47.302  18.270  18.662  0.00  0.00    +0.224 A 
ENDROOT
BRANCH   3   2
ATOM      1  C   UNL     1      50.797  17.757  17.491  0.00  0.00    +0.046 C 
ATOM      2  C   UNL     1      49.536  17.244  18.190  0.00  0.00    +0.016 C 
ATOM     26  C   UNL     1      48.752  16.343  17.232  0.00  0.00    +0.044 C 
BRANCH   2  24
ATOM     24  C   UNL     1      49.924  16.458  19.416  0.00  0.00    +0.006 C 
ATOM     25  C   UNL     1      51.189  16.240  19.680  0.00  0.00    -0.030 C 
ENDBRANCH   2  24
ENDBRANCH   3   2
BRANCH   4   5
ATOM      5  O   UNL     1      50.610  19.772  18.820  0.00  0.00    -0.481 OA
ATOM      6  H   UNL     1      50.901  20.509  18.265  0.00  0.00    +0.400 HD
ENDBRANCH   4   5
BRANCH  13  14
ATOM     14  O   UNL     1      40.920  21.849  18.953  0.00  0.00    -0.311 OA
ATOM     15  C   UNL     1      40.302  20.733  18.311  0.00  0.00    +0.246 C 
ENDBRANCH  13  14
BRANCH  21  22
ATOM     22  O   UNL     1      46.724  17.078  18.368  0.00  0.00    -0.463 OA
ATOM     23  H   UNL     1      46.016  16.823  18.976  0.00  0.00    +0.401 HD
ENDBRANCH  21  22
TORSDOF 5
ENDMDL
MODEL 8
REMARK VINA RESULT:      -5.2      4.229      8.162
REMARK  Name = ZINC95485918
REMARK  8 active torsions:
REMARK  status: ('A' for Active; 'I' for Inactive)
REMARK    1  A    between atoms: C1_1  and  C2_2
REMARK    2  A    between atoms: C2_2  and  C3_3
REMARK    3  A    between atoms: C2_2  and  C4_4
REMARK    4  A    between atoms: C2_2  and  C6_6
REMARK    5  A    between atoms: C7_7  and  O5_24
REMARK    6  A    between atoms: C11_11  and  O1_12
REMARK    7  A    between atoms: C15_17  and  O4_22
REMARK    8  A    between atoms: O4_22  and  C19_23
REMARK                            x       y       z     vdW  Elec       q    Type
REMARK                         _______ _______ _______ _____ _____    ______ ____
ROOT
ATOM      3  C   UNL     1      42.304  19.401  20.054  0.00  0.00    -0.156 A 
ATOM      4  C   UNL     1      41.752  18.901  21.228  0.00  0.00    +0.200 A 
ATOM      7  C   UNL     1      42.412  17.930  21.966  0.00  0.00    -0.036 A 
ATOM      8  C   UNL     1      43.638  17.440  21.537  0.00  0.00    +0.192 A 
ATOM      9  C   UNL     1      44.192  17.939  20.344  0.00  0.00    -0.267 A 
ATOM     10  C   UNL     1      45.481  17.394  19.887  0.00  0.00    +0.443 A 
ATOM     11  C   UNL     1      45.944  16.167  20.572  0.00  0.00    -0.181 A 
ATOM     12  C   UNL     1      46.999  15.413  20.062  0.00  0.00    +0.087 A 
ATOM     13  C   UNL     1      47.404  14.269  20.725  0.00  0.00    +0.103 A 
ATOM     16  C   UNL     1      46.758  13.877  21.893  0.00  0.00    +0.003 A 
ATOM     17  C   UNL     1      45.714  14.619  22.403  0.00  0.00    +0.050 A 
ATOM     18  C   UNL     1      45.294  15.776  21.753  0.00  0.00    +0.116 A 
ATOM     19  O   UNL     1      46.127  17.920  18.999  0.00  0.00    -0.429 OA
ATOM     20  O   UNL     1      44.280  16.504  22.263  0.00  0.00    -0.223 OA
ATOM     21  C   UNL     1      43.521  18.923  19.605  0.00  0.00    +0.224 A 
ENDROOT
BRANCH   3   2
ATOM      1  C   UNL     1      42.389  21.755  19.279  0.00  0.00    +0.046 C 
ATOM      2  C   UNL     1      41.574  20.459  19.269  0.00  0.00    +0.016 C 
ATOM     26  C   UNL     1      40.206  20.714  19.906  0.00  0.00    +0.044 C 
BRANCH   2  24
ATOM     24  C   UNL     1      41.388  19.993  17.848  0.00  0.00    +0.006 C 
ATOM     25  C   UNL     1      40.353  19.253  17.532  0.00  0.00    -0.030 C 
ENDBRANCH   2  24
ENDBRANCH   3   2
BRANCH   4   5
ATOM      5  O   UNL     1      40.552  19.369  21.658  0.00  0.00    -0.481 OA
ATOM      6  H   UNL     1      39.794  18.865  21.332  0.00  0.00    +0.400 HD
ENDBRANCH   4   5
BRANCH  13  14
ATOM     14  O   UNL     1      48.432  13.528  20.236  0.00  0.00    -0.311 OA
ATOM     15  C   UNL     1      48.161  12.712  19.095  0.00  0.00    +0.246 C 
ENDBRANCH  13  14
BRANCH  21  22
ATOM     22  O   UNL     1      44.064  19.406  18.459  0.00  0.00    -0.463 OA
ATOM     23  H   UNL     1      43.545  20.107  18.042  0.00  0.00    +0.401 HD
ENDBRANCH  21  22
TORSDOF 5
ENDMDL
MODEL 9
REMARK VINA RESULT:      -5.2     18.924     21.792
REMARK  Name = ZINC95485918
REMARK  8 active torsions:
REMARK  status: ('A' for Active; 'I' for Inactive)
REMARK    1  A    between atoms: C1_1  and  C2_2
REMARK    2  A    between atoms: C2_2  and  C3_3
REMARK    3  A    between atoms: C2_2  and  C4_4
REMARK    4  A    between atoms: C2_2  and  C6_6
REMARK    5  A    between atoms: C7_7  and  O5_24
REMARK    6  A    between atoms: C11_11  and  O1_12
REMARK    7  A    between atoms: C15_17  and  O4_22
REMARK    8  A    between atoms: O4_22  and  C19_23
REMARK                            x       y       z     vdW  Elec       q    Type
REMARK                         _______ _______ _______ _____ _____    ______ ____
ROOT
ATOM      3  C   UNL     1      53.689  33.823   5.154  0.00  0.00    -0.156 A 
ATOM      4  C   UNL     1      54.691  34.090   6.080  0.00  0.00    +0.200 A 
ATOM      7  C   UNL     1      55.977  33.608   5.893  0.00  0.00    -0.036 A 
ATOM      8  C   UNL     1      56.282  32.845   4.774  0.00  0.00    +0.192 A 
ATOM      9  C   UNL     1      55.266  32.566   3.842  0.00  0.00    -0.267 A 
ATOM     10  C   UNL     1      55.596  31.735   2.672  0.00  0.00    +0.443 A 
ATOM     11  C   UNL     1      56.896  31.030   2.725  0.00  0.00    -0.181 A 
ATOM     12  C   UNL     1      57.203  30.020   1.816  0.00  0.00    +0.087 A 
ATOM     13  C   UNL     1      58.425  29.378   1.896  0.00  0.00    +0.103 A 
ATOM     16  C   UNL     1      59.338  29.742   2.881  0.00  0.00    +0.003 A 
ATOM     17  C   UNL     1      59.041  30.742   3.782  0.00  0.00    +0.050 A 
ATOM     18  C   UNL     1      57.818  31.402   3.716  0.00  0.00    +0.116 A 
ATOM     19  O   UNL     1      54.846  31.634   1.719  0.00  0.00    -0.429 OA
ATOM     20  O   UNL     1      57.537  32.387   4.593  0.00  0.00    -0.223 OA
ATOM     21  C   UNL     1      53.969  33.059   4.035  0.00  0.00    +0.224 A 
ENDROOT
BRANCH   3   2
ATOM      1  C   UNL     1      51.980  35.401   4.296  0.00  0.00    +0.046 C 
ATOM      2  C   UNL     1      52.298  34.360   5.371  0.00  0.00    +0.016 C 
ATOM     26  C   UNL     1      52.214  35.012   6.753  0.00  0.00    +0.044 C 
BRANCH   2  24
ATOM     24  C   UNL     1      51.305  33.230   5.287  0.00  0.00    +0.006 C 
ATOM     25  C   UNL     1      50.935  32.601   6.375  0.00  0.00    -0.030 C 
ENDBRANCH   2  24
ENDBRANCH   3   2
BRANCH   4   5
ATOM      5  O   UNL     1      54.406  34.832   7.180  0.00  0.00    -0.481 OA
ATOM      6  H   UNL     1      53.790  34.407   7.793  0.00  0.00    +0.400 HD
ENDBRANCH   4   5
BRANCH  13  14
ATOM     14  O   UNL     1      58.735  28.392   1.014  0.00  0.00    -0.311 OA
ATOM     15  C   UNL     1      58.220  27.088   1.289  0.00  0.00    +0.246 C 
ENDBRANCH  13  14
BRANCH  21  22
ATOM     22  O   UNL     1      52.995  32.794   3.128  0.00  0.00    -0.463 OA
ATOM     23  H   UNL     1      53.115  31.959   2.654  0.00  0.00    +0.401 HD
ENDBRANCH  21  22
TORSDOF 5
ENDMDL
