MODEL 1
REMARK VINA RESULT:      -7.0      0.000      0.000
REMARK  Name = ZINC95485948
REMARK  16 active torsions:
REMARK  status: ('A' for Active; 'I' for Inactive)
REMARK    1  A    between atoms: C1_1  and  C2_2
REMARK    2  A    between atoms: C2_2  and  C3_3
REMARK    3  A    between atoms: C3_3  and  C4_5
REMARK    4  A    between atoms: C3_3  and  C32_48
REMARK    5  A    between atoms: C5_6  and  C6_7
REMARK    6  A    between atoms: C6_7  and  C7_9
REMARK    7  A    between atoms: C6_7  and  C8_10
REMARK    8  A    between atoms: C12_16  and  C31_47
REMARK    9  A    between atoms: C20_26  and  C30_46
REMARK   10  A    between atoms: C24_30  and  O1_32
REMARK   11  A    between atoms: O1_32  and  C25_33
REMARK   12  A    between atoms: C26_35  and  O5_45
REMARK   13  A    between atoms: C27_37  and  O4_44
REMARK   14  A    between atoms: C28_39  and  O3_43
REMARK   15  A    between atoms: C32_48  and  C33_49
REMARK   16  A    between atoms: C32_48  and  C34_50
REMARK                            x       y       z     vdW  Elec       q    Type
REMARK                         _______ _______ _______ _____ _____    ______ ____
ROOT
ATOM     10  C   UNL     1      51.322  14.815  18.532  0.00  0.00    +0.004 C 
ATOM     11  C   UNL     1      51.235  15.182  17.036  0.00  0.00    +0.008 C 
ATOM     12  C   UNL     1      49.889  14.621  16.526  0.00  0.00    +0.001 C 
ATOM     13  C   UNL     1      49.013  14.531  17.811  0.00  0.00    +0.004 C 
ATOM     14  C   UNL     1      48.528  15.954  18.105  0.00  0.00    +0.007 C 
ATOM     15  C   UNL     1      47.357  16.253  17.156  0.00  0.00    +0.060 C 
ATOM     16  C   UNL     1      46.733  17.570  17.510  0.00  0.00    -0.025 C 
ATOM     17  C   UNL     1      46.844  18.126  18.674  0.00  0.00    -0.108 C 
ATOM     18  C   UNL     1      47.629  17.519  19.843  0.00  0.00    -0.007 C 
ATOM     19  C   UNL     1      46.723  17.522  21.076  0.00  0.00    +0.026 C 
ATOM     20  C   UNL     1      48.847  18.382  20.162  0.00  0.00    +0.024 C 
ATOM     21  C   UNL     1      48.572  19.836  19.779  0.00  0.00    +0.013 C 
ATOM     22  C   UNL     1      47.106  20.198  20.009  0.00  0.00    -0.002 C 
ATOM     23  C   UNL     1      46.196  19.477  18.927  0.00  0.00    +0.202 C 
ATOM     37  C   UNL     1      48.041  16.079  19.556  0.00  0.00    +0.001 C 
ATOM     38  C   UNL     1      49.184  15.707  20.512  0.00  0.00    +0.011 C 
ATOM     39  C   UNL     1      49.570  14.250  20.274  0.00  0.00    +0.019 C 
ATOM     40  C   UNL     1      50.036  14.043  18.851  0.00  0.00    -0.048 C 
ATOM     41  C   UNL     1      50.287  12.549  18.640  0.00  0.00    +0.017 C 
ENDROOT
BRANCH  10   9
ATOM      9  C   UNL     1      51.402  16.084  19.383  0.00  0.00    +0.033 C 
ATOM     42  C   UNL     1      52.498  15.923  20.438  0.00  0.00    +0.015 C 
BRANCH   9   8
ATOM      7  C   UNL     1      52.288  18.329  19.009  0.00  0.00    -0.042 C 
ATOM      8  C   UNL     1      51.725  17.262  18.499  0.00  0.00    -0.045 C 
BRANCH   7   3
ATOM      3  C   UNL     1      52.612  19.506  18.126  0.00  0.00    +0.019 C 
BRANCH   3   4
ATOM      4  C   UNL     1      51.502  19.684  17.087  0.00  0.00    -0.019 C 
ATOM      5  C   UNL     1      52.069  19.436  15.688  0.00  0.00    +0.014 C 
ATOM      6  C   UNL     1      50.951  21.109  17.169  0.00  0.00    +0.012 C 
ENDBRANCH   3   4
BRANCH   3   2
ATOM      1  C   UNL     1      52.375  20.437  20.432  0.00  0.00    +0.007 C 
ATOM      2  C   UNL     1      52.719  20.771  18.979  0.00  0.00    +0.007 C 
ENDBRANCH   3   2
ENDBRANCH   7   3
ENDBRANCH   9   8
ENDBRANCH  10   9
BRANCH  23  24
ATOM     24  O   UNL     1      44.872  19.296  19.434  0.00  0.00    -0.344 OA
BRANCH  24  25
ATOM     25  C   UNL     1      43.895  20.142  18.824  0.00  0.00    +0.286 C 
ATOM     26  C   UNL     1      43.808  21.461  19.598  0.00  0.00    +0.185 C 
ATOM     29  C   UNL     1      42.717  22.338  18.975  0.00  0.00    +0.200 C 
ATOM     32  C   UNL     1      41.393  21.569  18.984  0.00  0.00    +0.125 C 
ATOM     35  C   UNL     1      41.573  20.247  18.234  0.00  0.00    +0.210 C 
ATOM     36  O   UNL     1      42.623  19.494  18.846  0.00  0.00    -0.386 OA
BRANCH  26  27
ATOM     27  O   UNL     1      43.484  21.192  20.964  0.00  0.00    -0.538 OA
ATOM     28  H   UNL     1      42.753  21.722  21.307  0.00  0.00    +0.387 HD
ENDBRANCH  26  27
BRANCH  29  30
ATOM     30  O   UNL     1      42.579  23.540  19.734  0.00  0.00    -0.545 OA
ATOM     31  H   UNL     1      42.260  23.400  20.636  0.00  0.00    +0.388 HD
ENDBRANCH  29  30
BRANCH  32  33
ATOM     33  O   UNL     1      40.382  22.350  18.341  0.00  0.00    -0.563 OA
ATOM     34  H   UNL     1      39.718  21.826  17.873  0.00  0.00    +0.387 HD
ENDBRANCH  32  33
ENDBRANCH  24  25
ENDBRANCH  23  24
TORSDOF 10
ENDMDL
MODEL 2
REMARK VINA RESULT:      -6.7      1.356      4.739
REMARK  Name = ZINC95485948
REMARK  16 active torsions:
REMARK  status: ('A' for Active; 'I' for Inactive)
REMARK    1  A    between atoms: C1_1  and  C2_2
REMARK    2  A    between atoms: C2_2  and  C3_3
REMARK    3  A    between atoms: C3_3  and  C4_5
REMARK    4  A    between atoms: C3_3  and  C32_48
REMARK    5  A    between atoms: C5_6  and  C6_7
REMARK    6  A    between atoms: C6_7  and  C7_9
REMARK    7  A    between atoms: C6_7  and  C8_10
REMARK    8  A    between atoms: C12_16  and  C31_47
REMARK    9  A    between atoms: C20_26  and  C30_46
REMARK   10  A    between atoms: C24_30  and  O1_32
REMARK   11  A    between atoms: O1_32  and  C25_33
REMARK   12  A    between atoms: C26_35  and  O5_45
REMARK   13  A    between atoms: C27_37  and  O4_44
REMARK   14  A    between atoms: C28_39  and  O3_43
REMARK   15  A    between atoms: C32_48  and  C33_49
REMARK   16  A    between atoms: C32_48  and  C34_50
REMARK                            x       y       z     vdW  Elec       q    Type
REMARK                         _______ _______ _______ _____ _____    ______ ____
ROOT
ATOM     10  C   UNL     1      52.074  19.188  18.885  0.00  0.00    +0.004 C 
ATOM     11  C   UNL     1      52.121  18.244  20.104  0.00  0.00    +0.008 C 
ATOM     12  C   UNL     1      51.746  19.099  21.334  0.00  0.00    +0.001 C 
ATOM     13  C   UNL     1      50.914  20.271  20.734  0.00  0.00    +0.004 C 
ATOM     14  C   UNL     1      49.515  19.713  20.456  0.00  0.00    +0.007 C 
ATOM     15  C   UNL     1      48.756  19.671  21.791  0.00  0.00    +0.060 C 
ATOM     16  C   UNL     1      47.326  19.289  21.556  0.00  0.00    -0.025 C 
ATOM     17  C   UNL     1      46.723  19.430  20.418  0.00  0.00    -0.108 C 
ATOM     18  C   UNL     1      47.390  19.998  19.160  0.00  0.00    -0.007 C 
ATOM     19  C   UNL     1      46.486  21.098  18.599  0.00  0.00    +0.026 C 
ATOM     20  C   UNL     1      47.512  18.912  18.094  0.00  0.00    +0.024 C 
ATOM     21  C   UNL     1      46.396  17.882  18.266  0.00  0.00    +0.013 C 
ATOM     22  C   UNL     1      45.110  18.544  18.759  0.00  0.00    -0.002 C 
ATOM     23  C   UNL     1      45.276  18.988  20.273  0.00  0.00    +0.202 C 
ATOM     37  C   UNL     1      48.750  20.612  19.473  0.00  0.00    +0.001 C 
ATOM     38  C   UNL     1      49.541  20.721  18.161  0.00  0.00    +0.011 C 
ATOM     39  C   UNL     1      50.885  21.384  18.449  0.00  0.00    +0.019 C 
ATOM     40  C   UNL     1      51.686  20.567  19.435  0.00  0.00    -0.048 C 
ATOM     41  C   UNL     1      52.960  21.341  19.779  0.00  0.00    +0.017 C 
ENDROOT
BRANCH  10   9
ATOM      9  C   UNL     1      51.024  18.705  17.882  0.00  0.00    +0.033 C 
ATOM     42  C   UNL     1      51.633  18.677  16.479  0.00  0.00    +0.015 C 
BRANCH   9   8
ATOM      7  C   UNL     1      50.094  16.512  17.345  0.00  0.00    -0.042 C 
ATOM      8  C   UNL     1      50.568  17.320  18.261  0.00  0.00    -0.045 C 
BRANCH   7   3
ATOM      3  C   UNL     1      49.639  15.127  17.723  0.00  0.00    +0.019 C 
BRANCH   3   4
ATOM      4  C   UNL     1      49.575  15.010  19.247  0.00  0.00    -0.019 C 
ATOM      5  C   UNL     1      50.261  13.715  19.688  0.00  0.00    +0.014 C 
ATOM      6  C   UNL     1      48.112  14.990  19.696  0.00  0.00    +0.012 C 
ENDBRANCH   3   4
BRANCH   3   2
ATOM      1  C   UNL     1      48.281  13.575  16.312  0.00  0.00    +0.007 C 
ATOM      2  C   UNL     1      48.252  14.866  17.133  0.00  0.00    +0.007 C 
ENDBRANCH   3   2
ENDBRANCH   7   3
ENDBRANCH   9   8
ENDBRANCH  10   9
BRANCH  23  24
ATOM     24  O   UNL     1      44.401  20.078  20.570  0.00  0.00    -0.344 OA
BRANCH  24  25
ATOM     25  C   UNL     1      43.208  20.095  19.783  0.00  0.00    +0.286 C 
ATOM     26  C   UNL     1      42.965  21.512  19.254  0.00  0.00    +0.185 C 
ATOM     29  C   UNL     1      41.654  21.536  18.464  0.00  0.00    +0.200 C 
ATOM     32  C   UNL     1      40.517  21.050  19.368  0.00  0.00    +0.125 C 
ATOM     35  C   UNL     1      40.854  19.651  19.892  0.00  0.00    +0.210 C 
ATOM     36  O   UNL     1      42.100  19.694  20.591  0.00  0.00    -0.386 OA
BRANCH  26  27
ATOM     27  O   UNL     1      42.880  22.423  20.353  0.00  0.00    -0.538 OA
ATOM     28  H   UNL     1      43.446  22.192  21.100  0.00  0.00    +0.387 HD
ENDBRANCH  26  27
BRANCH  29  30
ATOM     30  O   UNL     1      41.384  22.869  18.027  0.00  0.00    -0.545 OA
ATOM     31  H   UNL     1      41.900  23.545  18.487  0.00  0.00    +0.388 HD
ENDBRANCH  29  30
BRANCH  32  33
ATOM     33  O   UNL     1      39.300  21.001  18.620  0.00  0.00    -0.563 OA
ATOM     34  H   UNL     1      38.503  21.113  19.156  0.00  0.00    +0.387 HD
ENDBRANCH  32  33
ENDBRANCH  24  25
ENDBRANCH  23  24
TORSDOF 10
ENDMDL
MODEL 3
REMARK VINA RESULT:      -6.7      3.671      7.525
REMARK  Name = ZINC95485948
REMARK  16 active torsions:
REMARK  status: ('A' for Active; 'I' for Inactive)
REMARK    1  A    between atoms: C1_1  and  C2_2
REMARK    2  A    between atoms: C2_2  and  C3_3
REMARK    3  A    between atoms: C3_3  and  C4_5
REMARK    4  A    between atoms: C3_3  and  C32_48
REMARK    5  A    between atoms: C5_6  and  C6_7
REMARK    6  A    between atoms: C6_7  and  C7_9
REMARK    7  A    between atoms: C6_7  and  C8_10
REMARK    8  A    between atoms: C12_16  and  C31_47
REMARK    9  A    between atoms: C20_26  and  C30_46
REMARK   10  A    between atoms: C24_30  and  O1_32
REMARK   11  A    between atoms: O1_32  and  C25_33
REMARK   12  A    between atoms: C26_35  and  O5_45
REMARK   13  A    between atoms: C27_37  and  O4_44
REMARK   14  A    between atoms: C28_39  and  O3_43
REMARK   15  A    between atoms: C32_48  and  C33_49
REMARK   16  A    between atoms: C32_48  and  C34_50
REMARK                            x       y       z     vdW  Elec       q    Type
REMARK                         _______ _______ _______ _____ _____    ______ ____
ROOT
ATOM     10  C   UNL     1      50.017  20.793  20.011  0.00  0.00    +0.004 C 
ATOM     11  C   UNL     1      49.845  21.128  18.514  0.00  0.00    +0.008 C 
ATOM     12  C   UNL     1      50.778  20.168  17.742  0.00  0.00    +0.001 C 
ATOM     13  C   UNL     1      50.948  18.957  18.708  0.00  0.00    +0.004 C 
ATOM     14  C   UNL     1      49.671  18.122  18.585  0.00  0.00    +0.007 C 
ATOM     15  C   UNL     1      49.778  17.291  17.297  0.00  0.00    +0.060 C 
ATOM     16  C   UNL     1      48.631  16.330  17.209  0.00  0.00    -0.025 C 
ATOM     17  C   UNL     1      47.944  15.937  18.234  0.00  0.00    -0.108 C 
ATOM     18  C   UNL     1      48.207  16.403  19.671  0.00  0.00    -0.007 C 
ATOM     19  C   UNL     1      48.301  15.163  20.563  0.00  0.00    +0.026 C 
ATOM     20  C   UNL     1      47.036  17.245  20.172  0.00  0.00    +0.024 C 
ATOM     21  C   UNL     1      45.747  16.818  19.469  0.00  0.00    +0.013 C 
ATOM     22  C   UNL     1      45.744  15.316  19.190  0.00  0.00    -0.002 C 
ATOM     23  C   UNL     1      46.781  14.979  18.038  0.00  0.00    +0.202 C 
ATOM     37  C   UNL     1      49.519  17.172  19.782  0.00  0.00    +0.001 C 
ATOM     38  C   UNL     1      49.487  17.989  21.082  0.00  0.00    +0.011 C 
ATOM     39  C   UNL     1      50.817  18.723  21.235  0.00  0.00    +0.019 C 
ATOM     40  C   UNL     1      51.050  19.661  20.073  0.00  0.00    -0.048 C 
ATOM     41  C   UNL     1      52.447  20.268  20.218  0.00  0.00    +0.017 C 
ENDROOT
BRANCH  10   9
ATOM      9  C   UNL     1      48.686  20.328  20.604  0.00  0.00    +0.033 C 
ATOM     42  C   UNL     1      48.457  21.021  21.949  0.00  0.00    +0.015 C 
BRANCH   9   8
ATOM      7  C   UNL     1      46.394  21.027  20.133  0.00  0.00    -0.042 C 
ATOM      8  C   UNL     1      47.565  20.679  19.660  0.00  0.00    -0.045 C 
BRANCH   7   3
ATOM      3  C   UNL     1      45.274  21.379  19.190  0.00  0.00    +0.019 C 
BRANCH   3   4
ATOM      4  C   UNL     1      44.120  20.392  19.377  0.00  0.00    -0.019 C 
ATOM      5  C   UNL     1      42.788  21.122  19.187  0.00  0.00    +0.014 C 
ATOM      6  C   UNL     1      44.179  19.799  20.787  0.00  0.00    +0.012 C 
ENDBRANCH   3   4
BRANCH   3   2
ATOM      1  C   UNL     1      45.399  23.287  20.798  0.00  0.00    +0.007 C 
ATOM      2  C   UNL     1      44.784  22.798  19.485  0.00  0.00    +0.007 C 
ENDBRANCH   3   2
ENDBRANCH   7   3
ENDBRANCH   9   8
ENDBRANCH  10   9
BRANCH  23  24
ATOM     24  O   UNL     1      47.235  13.629  18.158  0.00  0.00    -0.344 OA
BRANCH  24  25
ATOM     25  C   UNL     1      48.070  13.198  17.082  0.00  0.00    +0.286 C 
ATOM     26  C   UNL     1      47.266  13.206  15.778  0.00  0.00    +0.185 C 
ATOM     29  C   UNL     1      48.150  12.686  14.640  0.00  0.00    +0.200 C 
ATOM     32  C   UNL     1      48.658  11.288  15.002  0.00  0.00    +0.125 C 
ATOM     35  C   UNL     1      49.408  11.354  16.335  0.00  0.00    +0.210 C 
ATOM     36  O   UNL     1      48.539  11.874  17.343  0.00  0.00    -0.386 OA
BRANCH  26  27
ATOM     27  O   UNL     1      46.120  12.363  15.919  0.00  0.00    -0.538 OA
ATOM     28  H   UNL     1      46.054  11.674  15.245  0.00  0.00    +0.387 HD
ENDBRANCH  26  27
BRANCH  29  30
ATOM     30  O   UNL     1      47.386  12.623  13.434  0.00  0.00    -0.545 OA
ATOM     31  H   UNL     1      46.448  12.825  13.552  0.00  0.00    +0.388 HD
ENDBRANCH  29  30
BRANCH  32  33
ATOM     33  O   UNL     1      49.541  10.821  13.978  0.00  0.00    -0.563 OA
ATOM     34  H   UNL     1      50.411  11.241  13.987  0.00  0.00    +0.387 HD
ENDBRANCH  32  33
ENDBRANCH  24  25
ENDBRANCH  23  24
TORSDOF 10
ENDMDL
MODEL 4
REMARK VINA RESULT:      -6.3      3.966      7.787
REMARK  Name = ZINC95485948
REMARK  16 active torsions:
REMARK  status: ('A' for Active; 'I' for Inactive)
REMARK    1  A    between atoms: C1_1  and  C2_2
REMARK    2  A    between atoms: C2_2  and  C3_3
REMARK    3  A    between atoms: C3_3  and  C4_5
REMARK    4  A    between atoms: C3_3  and  C32_48
REMARK    5  A    between atoms: C5_6  and  C6_7
REMARK    6  A    between atoms: C6_7  and  C7_9
REMARK    7  A    between atoms: C6_7  and  C8_10
REMARK    8  A    between atoms: C12_16  and  C31_47
REMARK    9  A    between atoms: C20_26  and  C30_46
REMARK   10  A    between atoms: C24_30  and  O1_32
REMARK   11  A    between atoms: O1_32  and  C25_33
REMARK   12  A    between atoms: C26_35  and  O5_45
REMARK   13  A    between atoms: C27_37  and  O4_44
REMARK   14  A    between atoms: C28_39  and  O3_43
REMARK   15  A    between atoms: C32_48  and  C33_49
REMARK   16  A    between atoms: C32_48  and  C34_50
REMARK                            x       y       z     vdW  Elec       q    Type
REMARK                         _______ _______ _______ _____ _____    ______ ____
ROOT
ATOM     10  C   UNL     1      45.610  20.397  20.671  0.00  0.00    +0.004 C 
ATOM     11  C   UNL     1      46.376  20.022  21.957  0.00  0.00    +0.008 C 
ATOM     12  C   UNL     1      45.767  18.694  22.457  0.00  0.00    +0.001 C 
ATOM     13  C   UNL     1      45.158  18.056  21.173  0.00  0.00    +0.004 C 
ATOM     14  C   UNL     1      46.328  17.448  20.395  0.00  0.00    +0.007 C 
ATOM     15  C   UNL     1      46.686  16.110  21.060  0.00  0.00    +0.060 C 
ATOM     16  C   UNL     1      47.715  15.389  20.242  0.00  0.00    -0.025 C 
ATOM     17  C   UNL     1      47.917  15.615  18.984  0.00  0.00    -0.108 C 
ATOM     18  C   UNL     1      47.139  16.651  18.162  0.00  0.00    -0.007 C 
ATOM     19  C   UNL     1      46.628  15.964  16.895  0.00  0.00    +0.026 C 
ATOM     20  C   UNL     1      48.068  17.784  17.732  0.00  0.00    +0.024 C 
ATOM     21  C   UNL     1      49.501  17.267  17.606  0.00  0.00    +0.013 C 
ATOM     22  C   UNL     1      49.522  15.823  17.107  0.00  0.00    -0.002 C 
ATOM     23  C   UNL     1      49.004  14.849  18.247  0.00  0.00    +0.202 C 
ATOM     37  C   UNL     1      45.939  17.191  18.931  0.00  0.00    +0.001 C 
ATOM     38  C   UNL     1      45.506  18.512  18.279  0.00  0.00    +0.011 C 
ATOM     39  C   UNL     1      44.270  19.038  19.004  0.00  0.00    +0.019 C 
ATOM     40  C   UNL     1      44.570  19.289  20.463  0.00  0.00    -0.048 C 
ATOM     41  C   UNL     1      43.268  19.691  21.160  0.00  0.00    +0.017 C 
ENDROOT
BRANCH  10   9
ATOM      9  C   UNL     1      46.570  20.451  19.481  0.00  0.00    +0.033 C 
ATOM     42  C   UNL     1      46.256  21.682  18.628  0.00  0.00    +0.015 C 
BRANCH   9   8
ATOM      7  C   UNL     1      48.967  20.776  19.146  0.00  0.00    -0.042 C 
ATOM      8  C   UNL     1      47.988  20.536  19.983  0.00  0.00    -0.045 C 
BRANCH   7   3
ATOM      3  C   UNL     1      50.385  20.863  19.648  0.00  0.00    +0.019 C 
BRANCH   3   4
ATOM      4  C   UNL     1      50.528  20.020  20.917  0.00  0.00    -0.019 C 
ATOM      5  C   UNL     1      51.369  20.782  21.943  0.00  0.00    +0.014 C 
ATOM      6  C   UNL     1      51.217  18.697  20.575  0.00  0.00    +0.012 C 
ENDBRANCH   3   4
BRANCH   3   2
ATOM      1  C   UNL     1      51.149  21.137  17.286  0.00  0.00    +0.007 C 
ATOM      2  C   UNL     1      51.339  20.336  18.575  0.00  0.00    +0.007 C 
ENDBRANCH   3   2
ENDBRANCH   7   3
ENDBRANCH   9   8
ENDBRANCH  10   9
BRANCH  23  24
ATOM     24  O   UNL     1      48.459  13.659  17.673  0.00  0.00    -0.344 OA
BRANCH  24  25
ATOM     25  C   UNL     1      49.232  13.128  16.595  0.00  0.00    +0.286 C 
ATOM     26  C   UNL     1      48.433  13.232  15.293  0.00  0.00    +0.185 C 
ATOM     29  C   UNL     1      49.243  12.605  14.154  0.00  0.00    +0.200 C 
ATOM     32  C   UNL     1      49.576  11.155  14.518  0.00  0.00    +0.125 C 
ATOM     35  C   UNL     1      50.331  11.131  15.849  0.00  0.00    +0.210 C 
ATOM     36  O   UNL     1      49.535  11.756  16.857  0.00  0.00    -0.386 OA
BRANCH  26  27
ATOM     27  O   UNL     1      47.192  12.538  15.438  0.00  0.00    -0.538 OA
ATOM     28  H   UNL     1      47.084  12.099  16.292  0.00  0.00    +0.387 HD
ENDBRANCH  26  27
BRANCH  29  30
ATOM     30  O   UNL     1      48.476  12.635  12.950  0.00  0.00    -0.545 OA
ATOM     31  H   UNL     1      48.314  13.525  12.609  0.00  0.00    +0.388 HD
ENDBRANCH  29  30
BRANCH  32  33
ATOM     33  O   UNL     1      50.392  10.581  13.493  0.00  0.00    -0.563 OA
ATOM     34  H   UNL     1      51.317  10.466  13.746  0.00  0.00    +0.387 HD
ENDBRANCH  32  33
ENDBRANCH  24  25
ENDBRANCH  23  24
TORSDOF 10
ENDMDL
MODEL 5
REMARK VINA RESULT:      -6.1      1.318      1.921
REMARK  Name = ZINC95485948
REMARK  16 active torsions:
REMARK  status: ('A' for Active; 'I' for Inactive)
REMARK    1  A    between atoms: C1_1  and  C2_2
REMARK    2  A    between atoms: C2_2  and  C3_3
REMARK    3  A    between atoms: C3_3  and  C4_5
REMARK    4  A    between atoms: C3_3  and  C32_48
REMARK    5  A    between atoms: C5_6  and  C6_7
REMARK    6  A    between atoms: C6_7  and  C7_9
REMARK    7  A    between atoms: C6_7  and  C8_10
REMARK    8  A    between atoms: C12_16  and  C31_47
REMARK    9  A    between atoms: C20_26  and  C30_46
REMARK   10  A    between atoms: C24_30  and  O1_32
REMARK   11  A    between atoms: O1_32  and  C25_33
REMARK   12  A    between atoms: C26_35  and  O5_45
REMARK   13  A    between atoms: C27_37  and  O4_44
REMARK   14  A    between atoms: C28_39  and  O3_43
REMARK   15  A    between atoms: C32_48  and  C33_49
REMARK   16  A    between atoms: C32_48  and  C34_50
REMARK                            x       y       z     vdW  Elec       q    Type
REMARK                         _______ _______ _______ _____ _____    ______ ____
ROOT
ATOM     10  C   UNL     1      49.600  12.917  17.786  0.00  0.00    +0.004 C 
ATOM     11  C   UNL     1      49.748  13.665  16.444  0.00  0.00    +0.008 C 
ATOM     12  C   UNL     1      48.338  13.722  15.818  0.00  0.00    +0.001 C 
ATOM     13  C   UNL     1      47.381  13.593  17.040  0.00  0.00    +0.004 C 
ATOM     14  C   UNL     1      47.347  14.969  17.711  0.00  0.00    +0.007 C 
ATOM     15  C   UNL     1      46.407  15.865  16.891  0.00  0.00    +0.060 C 
ATOM     16  C   UNL     1      46.204  17.174  17.593  0.00  0.00    -0.025 C 
ATOM     17  C   UNL     1      46.394  17.344  18.862  0.00  0.00    -0.108 C 
ATOM     18  C   UNL     1      46.856  16.236  19.816  0.00  0.00    -0.007 C 
ATOM     19  C   UNL     1      45.905  16.214  21.014  0.00  0.00    +0.026 C 
ATOM     20  C   UNL     1      48.255  16.546  20.342  0.00  0.00    +0.024 C 
ATOM     21  C   UNL     1      48.482  18.057  20.367  0.00  0.00    +0.013 C 
ATOM     22  C   UNL     1      47.191  18.801  20.702  0.00  0.00    -0.002 C 
ATOM     23  C   UNL     1      46.186  18.719  19.477  0.00  0.00    +0.202 C 
ATOM     37  C   UNL     1      46.814  14.866  19.148  0.00  0.00    +0.001 C 
ATOM     38  C   UNL     1      47.705  13.911  19.956  0.00  0.00    +0.011 C 
ATOM     39  C   UNL     1      47.630  12.520  19.331  0.00  0.00    +0.019 C 
ATOM     40  C   UNL     1      48.116  12.549  17.900  0.00  0.00    -0.048 C 
ATOM     41  C   UNL     1      47.899  11.161  17.292  0.00  0.00    +0.017 C 
ENDROOT
BRANCH  10   9
ATOM      9  C   UNL     1      50.010  13.827  18.946  0.00  0.00    +0.033 C 
ATOM     42  C   UNL     1      51.127  13.158  19.749  0.00  0.00    +0.015 C 
BRANCH   9   8
ATOM      7  C   UNL     1      51.551  15.721  18.930  0.00  0.00    -0.042 C 
ATOM      8  C   UNL     1      50.501  15.144  18.402  0.00  0.00    -0.045 C 
BRANCH   7   3
ATOM      3  C   UNL     1      52.043  17.037  18.386  0.00  0.00    +0.019 C 
BRANCH   3   4
ATOM      4  C   UNL     1      51.086  17.528  17.298  0.00  0.00    -0.019 C 
ATOM      5  C   UNL     1      51.839  17.645  15.971  0.00  0.00    +0.014 C 
ATOM      6  C   UNL     1      50.528  18.898  17.691  0.00  0.00    +0.012 C 
ENDBRANCH   3   4
BRANCH   3   2
ATOM      1  C   UNL     1      52.650  17.404  20.781  0.00  0.00    +0.007 C 
ATOM      2  C   UNL     1      52.103  18.067  19.516  0.00  0.00    +0.007 C 
ENDBRANCH   3   2
ENDBRANCH   7   3
ENDBRANCH   9   8
ENDBRANCH  10   9
BRANCH  23  24
ATOM     24  O   UNL     1      44.838  18.852  19.931  0.00  0.00    -0.344 OA
BRANCH  24  25
ATOM     25  C   UNL     1      44.085  19.845  19.231  0.00  0.00    +0.286 C 
ATOM     26  C   UNL     1      44.111  21.156  20.021  0.00  0.00    +0.185 C 
ATOM     29  C   UNL     1      43.252  22.197  19.296  0.00  0.00    +0.200 C 
ATOM     32  C   UNL     1      41.833  21.646  19.132  0.00  0.00    +0.125 C 
ATOM     35  C   UNL     1      41.894  20.316  18.376  0.00  0.00    +0.210 C 
ATOM     36  O   UNL     1      42.733  19.404  19.088  0.00  0.00    -0.386 OA
BRANCH  26  27
ATOM     27  O   UNL     1      43.589  20.934  21.333  0.00  0.00    -0.538 OA
ATOM     28  H   UNL     1      44.211  20.506  21.937  0.00  0.00    +0.387 HD
ENDBRANCH  26  27
BRANCH  29  30
ATOM     30  O   UNL     1      43.214  23.402  20.063  0.00  0.00    -0.545 OA
ATOM     31  H   UNL     1      43.734  24.124  19.686  0.00  0.00    +0.388 HD
ENDBRANCH  29  30
BRANCH  32  33
ATOM     33  O   UNL     1      41.040  22.580  18.394  0.00  0.00    -0.563 OA
ATOM     34  H   UNL     1      41.222  23.505  18.607  0.00  0.00    +0.387 HD
ENDBRANCH  32  33
ENDBRANCH  24  25
ENDBRANCH  23  24
TORSDOF 10
ENDMDL
MODEL 6
REMARK VINA RESULT:      -6.0      1.957      3.312
REMARK  Name = ZINC95485948
REMARK  16 active torsions:
REMARK  status: ('A' for Active; 'I' for Inactive)
REMARK    1  A    between atoms: C1_1  and  C2_2
REMARK    2  A    between atoms: C2_2  and  C3_3
REMARK    3  A    between atoms: C3_3  and  C4_5
REMARK    4  A    between atoms: C3_3  and  C32_48
REMARK    5  A    between atoms: C5_6  and  C6_7
REMARK    6  A    between atoms: C6_7  and  C7_9
REMARK    7  A    between atoms: C6_7  and  C8_10
REMARK    8  A    between atoms: C12_16  and  C31_47
REMARK    9  A    between atoms: C20_26  and  C30_46
REMARK   10  A    between atoms: C24_30  and  O1_32
REMARK   11  A    between atoms: O1_32  and  C25_33
REMARK   12  A    between atoms: C26_35  and  O5_45
REMARK   13  A    between atoms: C27_37  and  O4_44
REMARK   14  A    between atoms: C28_39  and  O3_43
REMARK   15  A    between atoms: C32_48  and  C33_49
REMARK   16  A    between atoms: C32_48  and  C34_50
REMARK                            x       y       z     vdW  Elec       q    Type
REMARK                         _______ _______ _______ _____ _____    ______ ____
ROOT
ATOM     10  C   UNL     1      48.036  13.141  18.410  0.00  0.00    +0.004 C 
ATOM     11  C   UNL     1      48.776  14.074  17.430  0.00  0.00    +0.008 C 
ATOM     12  C   UNL     1      47.698  14.682  16.506  0.00  0.00    +0.001 C 
ATOM     13  C   UNL     1      46.391  14.591  17.348  0.00  0.00    +0.004 C 
ATOM     14  C   UNL     1      46.446  15.741  18.358  0.00  0.00    +0.007 C 
ATOM     15  C   UNL     1      46.049  17.029  17.622  0.00  0.00    +0.060 C 
ATOM     16  C   UNL     1      45.924  18.161  18.597  0.00  0.00    -0.025 C 
ATOM     17  C   UNL     1      45.722  17.996  19.865  0.00  0.00    -0.108 C 
ATOM     18  C   UNL     1      45.588  16.625  20.540  0.00  0.00    -0.007 C 
ATOM     19  C   UNL     1      44.318  16.638  21.393  0.00  0.00    +0.026 C 
ATOM     20  C   UNL     1      46.770  16.383  21.475  0.00  0.00    +0.024 C 
ATOM     21  C   UNL     1      47.306  17.716  21.997  0.00  0.00    +0.013 C 
ATOM     22  C   UNL     1      46.176  18.726  22.189  0.00  0.00    -0.002 C 
ATOM     23  C   UNL     1      45.635  19.208  20.778  0.00  0.00    +0.202 C 
ATOM     37  C   UNL     1      45.464  15.503  19.515  0.00  0.00    +0.001 C 
ATOM     38  C   UNL     1      45.806  14.178  20.211  0.00  0.00    +0.011 C 
ATOM     39  C   UNL     1      45.633  13.037  19.211  0.00  0.00    +0.019 C 
ATOM     40  C   UNL     1      46.553  13.219  18.026  0.00  0.00    -0.048 C 
ATOM     41  C   UNL     1      46.245  12.121  17.006  0.00  0.00    +0.017 C 
ENDROOT
BRANCH  10   9
ATOM      9  C   UNL     1      48.235  13.621  19.849  0.00  0.00    +0.033 C 
ATOM     42  C   UNL     1      48.411  12.413  20.770  0.00  0.00    +0.015 C 
BRANCH   9   8
ATOM      7  C   UNL     1      49.371  15.776  19.678  0.00  0.00    -0.042 C 
ATOM      8  C   UNL     1      49.463  14.492  19.922  0.00  0.00    -0.045 C 
BRANCH   7   3
ATOM      3  C   UNL     1      50.598  16.647  19.752  0.00  0.00    +0.019 C 
BRANCH   3   4
ATOM      4  C   UNL     1      50.391  17.894  18.890  0.00  0.00    -0.019 C 
ATOM      5  C   UNL     1      49.462  18.869  19.618  0.00  0.00    +0.014 C 
ATOM      6  C   UNL     1      49.761  17.492  17.554  0.00  0.00    +0.012 C 
ENDBRANCH   3   4
BRANCH   3   2
ATOM      1  C   UNL     1      52.226  16.594  21.646  0.00  0.00    +0.007 C 
ATOM      2  C   UNL     1      50.840  17.065  21.204  0.00  0.00    +0.007 C 
ENDBRANCH   3   2
ENDBRANCH   7   3
ENDBRANCH   9   8
ENDBRANCH  10   9
BRANCH  23  24
ATOM     24  O   UNL     1      44.278  19.640  20.888  0.00  0.00    -0.344 OA
BRANCH  24  25
ATOM     25  C   UNL     1      44.107  21.054  20.772  0.00  0.00    +0.286 C 
ATOM     26  C   UNL     1      43.095  21.358  19.664  0.00  0.00    +0.185 C 
ATOM     29  C   UNL     1      42.964  22.876  19.505  0.00  0.00    +0.200 C 
ATOM     32  C   UNL     1      44.344  23.468  19.210  0.00  0.00    +0.125 C 
ATOM     35  C   UNL     1      45.308  23.084  20.336  0.00  0.00    +0.210 C 
ATOM     36  O   UNL     1      45.360  21.660  20.450  0.00  0.00    -0.386 OA
BRANCH  26  27
ATOM     27  O   UNL     1      43.547  20.785  18.435  0.00  0.00    -0.538 OA
ATOM     28  H   UNL     1      43.401  21.346  17.662  0.00  0.00    +0.387 HD
ENDBRANCH  26  27
BRANCH  29  30
ATOM     30  O   UNL     1      42.075  23.168  18.426  0.00  0.00    -0.545 OA
ATOM     31  H   UNL     1      41.246  22.671  18.455  0.00  0.00    +0.388 HD
ENDBRANCH  29  30
BRANCH  32  33
ATOM     33  O   UNL     1      44.246  24.892  19.130  0.00  0.00    -0.563 OA
ATOM     34  H   UNL     1      45.070  25.330  18.877  0.00  0.00    +0.387 HD
ENDBRANCH  32  33
ENDBRANCH  24  25
ENDBRANCH  23  24
TORSDOF 10
ENDMDL
MODEL 7
REMARK VINA RESULT:      -6.0      4.132      8.119
REMARK  Name = ZINC95485948
REMARK  16 active torsions:
REMARK  status: ('A' for Active; 'I' for Inactive)
REMARK    1  A    between atoms: C1_1  and  C2_2
REMARK    2  A    between atoms: C2_2  and  C3_3
REMARK    3  A    between atoms: C3_3  and  C4_5
REMARK    4  A    between atoms: C3_3  and  C32_48
REMARK    5  A    between atoms: C5_6  and  C6_7
REMARK    6  A    between atoms: C6_7  and  C7_9
REMARK    7  A    between atoms: C6_7  and  C8_10
REMARK    8  A    between atoms: C12_16  and  C31_47
REMARK    9  A    between atoms: C20_26  and  C30_46
REMARK   10  A    between atoms: C24_30  and  O1_32
REMARK   11  A    between atoms: O1_32  and  C25_33
REMARK   12  A    between atoms: C26_35  and  O5_45
REMARK   13  A    between atoms: C27_37  and  O4_44
REMARK   14  A    between atoms: C28_39  and  O3_43
REMARK   15  A    between atoms: C32_48  and  C33_49
REMARK   16  A    between atoms: C32_48  and  C34_50
REMARK                            x       y       z     vdW  Elec       q    Type
REMARK                         _______ _______ _______ _____ _____    ______ ____
ROOT
ATOM     10  C   UNL     1      50.194  20.821  19.916  0.00  0.00    +0.004 C 
ATOM     11  C   UNL     1      49.989  21.178  18.429  0.00  0.00    +0.008 C 
ATOM     12  C   UNL     1      51.171  20.546  17.661  0.00  0.00    +0.001 C 
ATOM     13  C   UNL     1      51.629  19.374  18.580  0.00  0.00    +0.004 C 
ATOM     14  C   UNL     1      50.629  18.236  18.361  0.00  0.00    +0.007 C 
ATOM     15  C   UNL     1      50.999  17.535  17.045  0.00  0.00    +0.060 C 
ATOM     16  C   UNL     1      50.157  16.309  16.862  0.00  0.00    -0.025 C 
ATOM     17  C   UNL     1      49.568  15.691  17.835  0.00  0.00    -0.108 C 
ATOM     18  C   UNL     1      49.646  16.132  19.302  0.00  0.00    -0.007 C 
ATOM     19  C   UNL     1      50.041  14.915  20.142  0.00  0.00    +0.026 C 
ATOM     20  C   UNL     1      48.275  16.601  19.783  0.00  0.00    +0.024 C 
ATOM     21  C   UNL     1      47.173  15.884  19.002  0.00  0.00    +0.013 C 
ATOM     22  C   UNL     1      47.585  14.453  18.659  0.00  0.00    -0.002 C 
ATOM     23  C   UNL     1      48.713  14.469  17.543  0.00  0.00    +0.202 C 
ATOM     37  C   UNL     1      50.698  17.216  19.508  0.00  0.00    +0.001 C 
ATOM     38  C   UNL     1      50.403  17.924  20.838  0.00  0.00    +0.011 C 
ATOM     39  C   UNL     1      51.480  18.976  21.086  0.00  0.00    +0.019 C 
ATOM     40  C   UNL     1      51.491  20.004  19.978  0.00  0.00    -0.048 C 
ATOM     41  C   UNL     1      52.667  20.954  20.215  0.00  0.00    +0.017 C 
ENDROOT
BRANCH  10   9
ATOM      9  C   UNL     1      49.018  19.985  20.425  0.00  0.00    +0.033 C 
ATOM     42  C   UNL     1      48.639  20.443  21.835  0.00  0.00    +0.015 C 
BRANCH   9   8
ATOM      7  C   UNL     1      46.650  20.407  20.000  0.00  0.00    -0.042 C 
ATOM      8  C   UNL     1      47.838  20.164  19.504  0.00  0.00    -0.045 C 
BRANCH   7   3
ATOM      3  C   UNL     1      45.472  20.588  19.080  0.00  0.00    +0.019 C 
BRANCH   3   4
ATOM      4  C   UNL     1      44.264  19.839  19.646  0.00  0.00    -0.019 C 
ATOM      5  C   UNL     1      44.567  18.339  19.687  0.00  0.00    +0.014 C 
ATOM      6  C   UNL     1      43.045  20.088  18.754  0.00  0.00    +0.012 C 
ENDBRANCH   3   4
BRANCH   3   2
ATOM      1  C   UNL     1      45.241  22.733  20.339  0.00  0.00    +0.007 C 
ATOM      2  C   UNL     1      45.139  22.076  18.962  0.00  0.00    +0.007 C 
ENDBRANCH   3   2
ENDBRANCH   7   3
ENDBRANCH   9   8
ENDBRANCH  10   9
BRANCH  23  24
ATOM     24  O   UNL     1      49.509  13.285  17.627  0.00  0.00    -0.344 OA
BRANCH  24  25
ATOM     25  C   UNL     1      49.596  12.555  16.401  0.00  0.00    +0.286 C 
ATOM     26  C   UNL     1      51.066  12.271  16.079  0.00  0.00    +0.185 C 
ATOM     29  C   UNL     1      51.154  11.543  14.734  0.00  0.00    +0.200 C 
ATOM     32  C   UNL     1      50.477  12.397  13.658  0.00  0.00    +0.125 C 
ATOM     35  C   UNL     1      49.030  12.677  14.073  0.00  0.00    +0.210 C 
ATOM     36  O   UNL     1      49.019  13.327  15.346  0.00  0.00    -0.386 OA
BRANCH  26  27
ATOM     27  O   UNL     1      51.785  13.504  16.004  0.00  0.00    -0.538 OA
ATOM     28  H   UNL     1      51.605  14.109  16.735  0.00  0.00    +0.387 HD
ENDBRANCH  26  27
BRANCH  29  30
ATOM     30  O   UNL     1      52.525  11.337  14.392  0.00  0.00    -0.545 OA
ATOM     31  H   UNL     1      52.964  12.123  14.039  0.00  0.00    +0.388 HD
ENDBRANCH  29  30
BRANCH  32  33
ATOM     33  O   UNL     1      50.491  11.696  12.412  0.00  0.00    -0.563 OA
ATOM     34  H   UNL     1      50.520  12.272  11.637  0.00  0.00    +0.387 HD
ENDBRANCH  32  33
ENDBRANCH  24  25
ENDBRANCH  23  24
TORSDOF 10
ENDMDL
MODEL 8
REMARK VINA RESULT:      -5.8      2.406      4.593
REMARK  Name = ZINC95485948
REMARK  16 active torsions:
REMARK  status: ('A' for Active; 'I' for Inactive)
REMARK    1  A    between atoms: C1_1  and  C2_2
REMARK    2  A    between atoms: C2_2  and  C3_3
REMARK    3  A    between atoms: C3_3  and  C4_5
REMARK    4  A    between atoms: C3_3  and  C32_48
REMARK    5  A    between atoms: C5_6  and  C6_7
REMARK    6  A    between atoms: C6_7  and  C7_9
REMARK    7  A    between atoms: C6_7  and  C8_10
REMARK    8  A    between atoms: C12_16  and  C31_47
REMARK    9  A    between atoms: C20_26  and  C30_46
REMARK   10  A    between atoms: C24_30  and  O1_32
REMARK   11  A    between atoms: O1_32  and  C25_33
REMARK   12  A    between atoms: C26_35  and  O5_45
REMARK   13  A    between atoms: C27_37  and  O4_44
REMARK   14  A    between atoms: C28_39  and  O3_43
REMARK   15  A    between atoms: C32_48  and  C33_49
REMARK   16  A    between atoms: C32_48  and  C34_50
REMARK                            x       y       z     vdW  Elec       q    Type
REMARK                         _______ _______ _______ _____ _____    ______ ____
ROOT
ATOM     10  C   UNL     1      50.315  13.076  20.089  0.00  0.00    +0.004 C 
ATOM     11  C   UNL     1      49.150  12.070  20.197  0.00  0.00    +0.008 C 
ATOM     12  C   UNL     1      48.437  12.370  21.534  0.00  0.00    +0.001 C 
ATOM     13  C   UNL     1      48.788  13.861  21.818  0.00  0.00    +0.004 C 
ATOM     14  C   UNL     1      47.874  14.701  20.921  0.00  0.00    +0.007 C 
ATOM     15  C   UNL     1      46.490  14.754  21.585  0.00  0.00    +0.060 C 
ATOM     16  C   UNL     1      45.598  15.699  20.838  0.00  0.00    -0.025 C 
ATOM     17  C   UNL     1      46.038  16.646  20.072  0.00  0.00    -0.108 C 
ATOM     18  C   UNL     1      47.525  16.924  19.821  0.00  0.00    -0.007 C 
ATOM     19  C   UNL     1      47.776  18.415  20.061  0.00  0.00    +0.026 C 
ATOM     20  C   UNL     1      47.877  16.625  18.366  0.00  0.00    +0.024 C 
ATOM     21  C   UNL     1      46.649  16.828  17.478  0.00  0.00    +0.013 C 
ATOM     22  C   UNL     1      45.781  17.974  17.995  0.00  0.00    -0.002 C 
ATOM     23  C   UNL     1      45.052  17.537  19.335  0.00  0.00    +0.202 C 
ATOM     37  C   UNL     1      48.414  16.131  20.772  0.00  0.00    +0.001 C 
ATOM     38  C   UNL     1      49.829  16.083  20.179  0.00  0.00    +0.011 C 
ATOM     39  C   UNL     1      50.745  15.339  21.147  0.00  0.00    +0.019 C 
ATOM     40  C   UNL     1      50.258  13.925  21.365  0.00  0.00    -0.048 C 
ATOM     41  C   UNL     1      51.137  13.273  22.435  0.00  0.00    +0.017 C 
ENDROOT
BRANCH  10   9
ATOM      9  C   UNL     1      50.134  13.964  18.856  0.00  0.00    +0.033 C 
ATOM     42  C   UNL     1      51.392  13.895  17.988  0.00  0.00    +0.015 C 
BRANCH   9   8
ATOM      7  C   UNL     1      48.829  13.809  16.797  0.00  0.00    -0.042 C 
ATOM      8  C   UNL     1      48.948  13.482  18.060  0.00  0.00    -0.045 C 
BRANCH   7   3
ATOM      3  C   UNL     1      47.644  13.327  16.002  0.00  0.00    +0.019 C 
BRANCH   3   4
ATOM      4  C   UNL     1      48.105  12.284  14.982  0.00  0.00    -0.019 C 
ATOM      5  C   UNL     1      49.589  11.979  15.200  0.00  0.00    +0.014 C 
ATOM      6  C   UNL     1      47.899  12.827  13.567  0.00  0.00    +0.012 C 
ENDBRANCH   3   4
BRANCH   3   2
ATOM      1  C   UNL     1      46.183  11.339  16.396  0.00  0.00    +0.007 C 
ATOM      2  C   UNL     1      46.617  12.699  16.946  0.00  0.00    +0.007 C 
ENDBRANCH   3   2
ENDBRANCH   7   3
ENDBRANCH   9   8
ENDBRANCH  10   9
BRANCH  23  24
ATOM     24  O   UNL     1      44.744  18.685  20.129  0.00  0.00    -0.344 OA
BRANCH  24  25
ATOM     25  C   UNL     1      44.102  19.737  19.405  0.00  0.00    +0.286 C 
ATOM     26  C   UNL     1      44.153  21.028  20.227  0.00  0.00    +0.185 C 
ATOM     29  C   UNL     1      43.410  22.134  19.472  0.00  0.00    +0.200 C 
ATOM     32  C   UNL     1      41.975  21.675  19.199  0.00  0.00    +0.125 C 
ATOM     35  C   UNL     1      42.008  20.360  18.416  0.00  0.00    +0.210 C 
ATOM     36  O   UNL     1      42.739  19.383  19.160  0.00  0.00    -0.386 OA
BRANCH  26  27
ATOM     27  O   UNL     1      43.530  20.811  21.495  0.00  0.00    -0.538 OA
ATOM     28  H   UNL     1      43.461  21.605  22.041  0.00  0.00    +0.387 HD
ENDBRANCH  26  27
BRANCH  29  30
ATOM     30  O   UNL     1      43.392  23.323  20.264  0.00  0.00    -0.545 OA
ATOM     31  H   UNL     1      44.044  23.330  20.977  0.00  0.00    +0.388 HD
ENDBRANCH  29  30
BRANCH  32  33
ATOM     33  O   UNL     1      41.293  22.671  18.433  0.00  0.00    -0.563 OA
ATOM     34  H   UNL     1      40.563  23.098  18.903  0.00  0.00    +0.387 HD
ENDBRANCH  32  33
ENDBRANCH  24  25
ENDBRANCH  23  24
TORSDOF 10
ENDMDL
MODEL 9
REMARK VINA RESULT:      -5.5      1.696      4.802
REMARK  Name = ZINC95485948
REMARK  16 active torsions:
REMARK  status: ('A' for Active; 'I' for Inactive)
REMARK    1  A    between atoms: C1_1  and  C2_2
REMARK    2  A    between atoms: C2_2  and  C3_3
REMARK    3  A    between atoms: C3_3  and  C4_5
REMARK    4  A    between atoms: C3_3  and  C32_48
REMARK    5  A    between atoms: C5_6  and  C6_7
REMARK    6  A    between atoms: C6_7  and  C7_9
REMARK    7  A    between atoms: C6_7  and  C8_10
REMARK    8  A    between atoms: C12_16  and  C31_47
REMARK    9  A    between atoms: C20_26  and  C30_46
REMARK   10  A    between atoms: C24_30  and  O1_32
REMARK   11  A    between atoms: O1_32  and  C25_33
REMARK   12  A    between atoms: C26_35  and  O5_45
REMARK   13  A    between atoms: C27_37  and  O4_44
REMARK   14  A    between atoms: C28_39  and  O3_43
REMARK   15  A    between atoms: C32_48  and  C33_49
REMARK   16  A    between atoms: C32_48  and  C34_50
REMARK                            x       y       z     vdW  Elec       q    Type
REMARK                         _______ _______ _______ _____ _____    ______ ____
ROOT
ATOM     10  C   UNL     1      51.154  16.759  19.124  0.00  0.00    +0.004 C 
ATOM     11  C   UNL     1      51.134  16.353  20.612  0.00  0.00    +0.008 C 
ATOM     12  C   UNL     1      51.172  17.666  21.424  0.00  0.00    +0.001 C 
ATOM     13  C   UNL     1      50.589  18.727  20.444  0.00  0.00    +0.004 C 
ATOM     14  C   UNL     1      49.070  18.540  20.455  0.00  0.00    +0.007 C 
ATOM     15  C   UNL     1      48.526  19.209  21.727  0.00  0.00    +0.060 C 
ATOM     16  C   UNL     1      47.027  19.203  21.710  0.00  0.00    -0.025 C 
ATOM     17  C   UNL     1      46.323  19.089  20.629  0.00  0.00    -0.108 C 
ATOM     18  C   UNL     1      46.924  18.940  19.226  0.00  0.00    -0.007 C 
ATOM     19  C   UNL     1      46.259  19.973  18.313  0.00  0.00    +0.026 C 
ATOM     20  C   UNL     1      46.609  17.556  18.664  0.00  0.00    +0.024 C 
ATOM     21  C   UNL     1      45.303  17.033  19.263  0.00  0.00    +0.013 C 
ATOM     22  C   UNL     1      44.314  18.172  19.504  0.00  0.00    -0.002 C 
ATOM     23  C   UNL     1      44.805  19.067  20.718  0.00  0.00    +0.202 C 
ATOM     37  C   UNL     1      48.426  19.200  19.227  0.00  0.00    +0.001 C 
ATOM     38  C   UNL     1      49.019  18.590  17.949  0.00  0.00    +0.011 C 
ATOM     39  C   UNL     1      50.515  18.890  17.909  0.00  0.00    +0.019 C 
ATOM     40  C   UNL     1      51.215  18.292  19.107  0.00  0.00    -0.048 C 
ATOM     41  C   UNL     1      52.681  18.731  19.077  0.00  0.00    +0.017 C 
ENDROOT
BRANCH  10   9
ATOM      9  C   UNL     1      49.882  16.273  18.426  0.00  0.00    +0.033 C 
ATOM     42  C   UNL     1      50.253  15.577  17.116  0.00  0.00    +0.015 C 
BRANCH   9   8
ATOM      7  C   UNL     1      48.437  14.341  18.802  0.00  0.00    -0.042 C 
ATOM      8  C   UNL     1      49.156  15.303  19.323  0.00  0.00    -0.045 C 
BRANCH   7   3
ATOM      3  C   UNL     1      47.713  13.371  19.698  0.00  0.00    +0.019 C 
BRANCH   3   4
ATOM      4  C   UNL     1      46.365  13.006  19.072  0.00  0.00    -0.019 C 
ATOM      5  C   UNL     1      46.235  13.690  17.709  0.00  0.00    +0.014 C 
ATOM      6  C   UNL     1      45.233  13.475  19.988  0.00  0.00    +0.012 C 
ENDBRANCH   3   4
BRANCH   3   2
ATOM      1  C   UNL     1      49.365  11.857  18.594  0.00  0.00    +0.007 C 
ATOM      2  C   UNL     1      48.555  12.105  19.868  0.00  0.00    +0.007 C 
ENDBRANCH   3   2
ENDBRANCH   7   3
ENDBRANCH   9   8
ENDBRANCH  10   9
BRANCH  23  24
ATOM     24  O   UNL     1      44.290  20.394  20.597  0.00  0.00    -0.344 OA
BRANCH  24  25
ATOM     25  C   UNL     1      43.146  20.498  19.747  0.00  0.00    +0.286 C 
ATOM     26  C   UNL     1      43.026  21.932  19.225  0.00  0.00    +0.185 C 
ATOM     29  C   UNL     1      41.764  22.050  18.365  0.00  0.00    +0.200 C 
ATOM     32  C   UNL     1      40.550  21.631  19.198  0.00  0.00    +0.125 C 
ATOM     35  C   UNL     1      40.766  20.208  19.721  0.00  0.00    +0.210 C 
ATOM     36  O   UNL     1      41.971  20.162  20.487  0.00  0.00    -0.386 OA
BRANCH  26  27
ATOM     27  O   UNL     1      42.939  22.836  20.330  0.00  0.00    -0.538 OA
ATOM     28  H   UNL     1      42.399  22.511  21.062  0.00  0.00    +0.387 HD
ENDBRANCH  26  27
BRANCH  29  30
ATOM     30  O   UNL     1      41.606  23.402  17.932  0.00  0.00    -0.545 OA
ATOM     31  H   UNL     1      40.685  23.685  17.855  0.00  0.00    +0.388 HD
ENDBRANCH  29  30
BRANCH  32  33
ATOM     33  O   UNL     1      39.376  21.669  18.384  0.00  0.00    -0.563 OA
ATOM     34  H   UNL     1      39.248  22.506  17.916  0.00  0.00    +0.387 HD
ENDBRANCH  32  33
ENDBRANCH  24  25
ENDBRANCH  23  24
TORSDOF 10
ENDMDL
