MODEL 1
REMARK VINA RESULT:      -5.6      0.000      0.000
REMARK  Name = ZINC95486310
REMARK  6 active torsions:
REMARK  status: ('A' for Active; 'I' for Inactive)
REMARK    1  A    between atoms: C1_1  and  C2_2
REMARK    2  A    between atoms: C2_2  and  C19_23
REMARK    3  A    between atoms: C10_12  and  C17_21
REMARK    4  A    between atoms: C13_15  and  O1_20
REMARK    5  A    between atoms: C14_17  and  C15_18
REMARK    6  A    between atoms: C14_17  and  C16_19
REMARK                            x       y       z     vdW  Elec       q    Type
REMARK                         _______ _______ _______ _____ _____    ______ ____
ROOT
ATOM      1  C   UNL     1      51.124  21.133  17.389  0.00  0.00    +0.029 C 
ATOM      2  C   UNL     1      51.655  20.651  18.741  0.00  0.00    -0.025 C 
ATOM      5  C   UNL     1      52.222  19.241  18.614  0.00  0.00    +0.018 C 
ATOM      6  C   UNL     1      51.146  18.234  18.206  0.00  0.00    +0.024 C 
ATOM      7  C   UNL     1      50.045  18.209  19.269  0.00  0.00    +0.030 C 
ATOM      8  C   UNL     1      49.526  19.598  19.460  0.00  0.00    -0.113 C 
ATOM      9  C   UNL     1      48.273  19.911  19.357  0.00  0.00    -0.059 C 
ATOM     10  C   UNL     1      47.212  18.902  19.013  0.00  0.00    +0.072 C 
ATOM     11  C   UNL     1      47.620  17.505  19.500  0.00  0.00    +0.021 C 
ATOM     12  C   UNL     1      46.531  16.512  19.114  0.00  0.00    -0.043 C 
ATOM     13  C   UNL     1      46.600  15.230  19.955  0.00  0.00    +0.029 C 
ATOM     14  C   UNL     1      45.146  17.128  19.421  0.00  0.00    +0.026 C 
ATOM     15  C   UNL     1      46.541  16.158  17.632  0.00  0.00    +0.165 C 
ATOM     18  C   UNL     1      47.929  15.834  17.104  0.00  0.00    -0.019 C 
ATOM     19  C   UNL     1      48.912  16.954  17.430  0.00  0.00    +0.030 C 
ATOM     20  C   UNL     1      48.993  17.159  18.942  0.00  0.00    -0.037 C 
ATOM     21  C   UNL     1      49.530  15.865  19.579  0.00  0.00    +0.017 C 
ATOM     22  C   UNL     1      50.532  20.689  19.781  0.00  0.00    +0.066 C 
ENDROOT
BRANCH   2   3
ATOM      3  C   UNL     1      52.760  21.584  19.187  0.00  0.00    -0.043 C 
ATOM      4  C   UNL     1      52.775  22.042  20.414  0.00  0.00    +0.000 C 
ENDBRANCH   2   3
BRANCH  15  16
ATOM     16  O   UNL     1      45.964  17.223  16.870  0.00  0.00    -0.561 OA
ATOM     17  H   UNL     1      45.449  16.927  16.107  0.00  0.00    +0.373 HD
ENDBRANCH  15  16
TORSDOF 2
ENDMDL
MODEL 2
REMARK VINA RESULT:      -5.5      2.271      5.250
REMARK  Name = ZINC95486310
REMARK  6 active torsions:
REMARK  status: ('A' for Active; 'I' for Inactive)
REMARK    1  A    between atoms: C1_1  and  C2_2
REMARK    2  A    between atoms: C2_2  and  C19_23
REMARK    3  A    between atoms: C10_12  and  C17_21
REMARK    4  A    between atoms: C13_15  and  O1_20
REMARK    5  A    between atoms: C14_17  and  C15_18
REMARK    6  A    between atoms: C14_17  and  C16_19
REMARK                            x       y       z     vdW  Elec       q    Type
REMARK                         _______ _______ _______ _____ _____    ______ ____
ROOT
ATOM      1  C   UNL     1      45.836  21.132  18.757  0.00  0.00    +0.029 C 
ATOM      2  C   UNL     1      46.059  20.489  20.127  0.00  0.00    -0.025 C 
ATOM      5  C   UNL     1      47.183  21.205  20.871  0.00  0.00    +0.018 C 
ATOM      6  C   UNL     1      48.515  21.085  20.132  0.00  0.00    +0.024 C 
ATOM      7  C   UNL     1      48.896  19.606  20.008  0.00  0.00    +0.030 C 
ATOM      8  C   UNL     1      47.773  18.874  19.346  0.00  0.00    -0.113 C 
ATOM      9  C   UNL     1      47.925  18.148  18.283  0.00  0.00    -0.059 C 
ATOM     10  C   UNL     1      49.253  17.987  17.596  0.00  0.00    +0.072 C 
ATOM     11  C   UNL     1      50.402  18.127  18.604  0.00  0.00    +0.021 C 
ATOM     12  C   UNL     1      51.726  17.980  17.866  0.00  0.00    -0.043 C 
ATOM     13  C   UNL     1      52.876  17.619  18.816  0.00  0.00    +0.029 C 
ATOM     14  C   UNL     1      51.629  16.795  16.875  0.00  0.00    +0.026 C 
ATOM     15  C   UNL     1      52.098  19.211  17.050  0.00  0.00    +0.165 C 
ATOM     18  C   UNL     1      51.928  20.511  17.818  0.00  0.00    -0.019 C 
ATOM     19  C   UNL     1      50.524  20.618  18.405  0.00  0.00    +0.030 C 
ATOM     20  C   UNL     1      50.258  19.446  19.349  0.00  0.00    -0.037 C 
ATOM     21  C   UNL     1      51.260  19.525  20.515  0.00  0.00    +0.017 C 
ATOM     22  C   UNL     1      46.389  19.004  19.954  0.00  0.00    +0.066 C 
ENDROOT
BRANCH   2   3
ATOM      3  C   UNL     1      44.784  20.612  20.933  0.00  0.00    -0.043 C 
ATOM      4  C   UNL     1      44.748  21.389  21.986  0.00  0.00    +0.000 C 
ENDBRANCH   2   3
BRANCH  15  16
ATOM     16  O   UNL     1      51.328  19.251  15.844  0.00  0.00    -0.561 OA
ATOM     17  H   UNL     1      51.683  19.849  15.170  0.00  0.00    +0.373 HD
ENDBRANCH  15  16
TORSDOF 2
ENDMDL
MODEL 3
REMARK VINA RESULT:      -5.4      2.425      4.224
REMARK  Name = ZINC95486310
REMARK  6 active torsions:
REMARK  status: ('A' for Active; 'I' for Inactive)
REMARK    1  A    between atoms: C1_1  and  C2_2
REMARK    2  A    between atoms: C2_2  and  C19_23
REMARK    3  A    between atoms: C10_12  and  C17_21
REMARK    4  A    between atoms: C13_15  and  O1_20
REMARK    5  A    between atoms: C14_17  and  C15_18
REMARK    6  A    between atoms: C14_17  and  C16_19
REMARK                            x       y       z     vdW  Elec       q    Type
REMARK                         _______ _______ _______ _____ _____    ______ ____
ROOT
ATOM      1  C   UNL     1      51.059  18.742  20.008  0.00  0.00    +0.029 C 
ATOM      2  C   UNL     1      50.739  19.192  18.581  0.00  0.00    -0.025 C 
ATOM      5  C   UNL     1      50.339  20.664  18.568  0.00  0.00    +0.018 C 
ATOM      6  C   UNL     1      49.066  20.911  19.377  0.00  0.00    +0.024 C 
ATOM      7  C   UNL     1      47.915  20.100  18.773  0.00  0.00    +0.030 C 
ATOM      8  C   UNL     1      48.318  18.662  18.711  0.00  0.00    -0.113 C 
ATOM      9  C   UNL     1      47.621  17.704  19.235  0.00  0.00    -0.059 C 
ATOM     10  C   UNL     1      46.338  17.949  19.979  0.00  0.00    +0.072 C 
ATOM     11  C   UNL     1      45.640  19.208  19.448  0.00  0.00    +0.021 C 
ATOM     12  C   UNL     1      44.358  19.433  20.241  0.00  0.00    -0.043 C 
ATOM     13  C   UNL     1      43.372  20.340  19.492  0.00  0.00    +0.029 C 
ATOM     14  C   UNL     1      43.621  18.083  20.413  0.00  0.00    +0.026 C 
ATOM     15  C   UNL     1      44.607  19.984  21.638  0.00  0.00    +0.165 C 
ATOM     18  C   UNL     1      45.591  21.143  21.658  0.00  0.00    -0.019 C 
ATOM     19  C   UNL     1      46.891  20.767  20.953  0.00  0.00    +0.030 C 
ATOM     20  C   UNL     1      46.609  20.381  19.501  0.00  0.00    -0.037 C 
ATOM     21  C   UNL     1      46.021  21.606  18.778  0.00  0.00    +0.017 C 
ATOM     22  C   UNL     1      49.618  18.323  18.005  0.00  0.00    +0.066 C 
ENDROOT
BRANCH   2   3
ATOM      3  C   UNL     1      51.978  19.014  17.730  0.00  0.00    -0.043 C 
ATOM      4  C   UNL     1      51.992  19.453  16.496  0.00  0.00    +0.000 C 
ENDBRANCH   2   3
BRANCH  15  16
ATOM     16  O   UNL     1      45.065  18.940  22.503  0.00  0.00    -0.561 OA
ATOM     17  H   UNL     1      44.512  18.806  23.286  0.00  0.00    +0.373 HD
ENDBRANCH  15  16
TORSDOF 2
ENDMDL
MODEL 4
REMARK VINA RESULT:      -5.4      2.539      5.599
REMARK  Name = ZINC95486310
REMARK  6 active torsions:
REMARK  status: ('A' for Active; 'I' for Inactive)
REMARK    1  A    between atoms: C1_1  and  C2_2
REMARK    2  A    between atoms: C2_2  and  C19_23
REMARK    3  A    between atoms: C10_12  and  C17_21
REMARK    4  A    between atoms: C13_15  and  O1_20
REMARK    5  A    between atoms: C14_17  and  C15_18
REMARK    6  A    between atoms: C14_17  and  C16_19
REMARK                            x       y       z     vdW  Elec       q    Type
REMARK                         _______ _______ _______ _____ _____    ______ ____
ROOT
ATOM      1  C   UNL     1      47.296  19.611  22.303  0.00  0.00    +0.029 C 
ATOM      2  C   UNL     1      46.498  18.878  21.223  0.00  0.00    -0.025 C 
ATOM      5  C   UNL     1      47.091  17.495  20.973  0.00  0.00    +0.018 C 
ATOM      6  C   UNL     1      48.523  17.582  20.444  0.00  0.00    +0.024 C 
ATOM      7  C   UNL     1      48.529  18.349  19.119  0.00  0.00    +0.030 C 
ATOM      8  C   UNL     1      47.884  19.681  19.328  0.00  0.00    -0.113 C 
ATOM      9  C   UNL     1      48.456  20.804  19.029  0.00  0.00    -0.059 C 
ATOM     10  C   UNL     1      49.843  20.878  18.453  0.00  0.00    +0.072 C 
ATOM     11  C   UNL     1      50.159  19.613  17.645  0.00  0.00    +0.021 C 
ATOM     12  C   UNL     1      51.578  19.718  17.099  0.00  0.00    -0.043 C 
ATOM     13  C   UNL     1      51.807  18.773  15.911  0.00  0.00    +0.029 C 
ATOM     14  C   UNL     1      51.804  21.142  16.537  0.00  0.00    +0.026 C 
ATOM     15  C   UNL     1      52.647  19.484  18.158  0.00  0.00    +0.165 C 
ATOM     18  C   UNL     1      52.375  18.263  19.022  0.00  0.00    -0.019 C 
ATOM     19  C   UNL     1      50.976  18.322  19.626  0.00  0.00    +0.030 C 
ATOM     20  C   UNL     1      49.926  18.388  18.517  0.00  0.00    -0.037 C 
ATOM     21  C   UNL     1      50.022  17.099  17.682  0.00  0.00    +0.017 C 
ATOM     22  C   UNL     1      46.493  19.703  19.934  0.00  0.00    +0.066 C 
ENDROOT
BRANCH   2   3
ATOM      3  C   UNL     1      45.071  18.718  21.702  0.00  0.00    -0.043 C 
ATOM      4  C   UNL     1      44.106  18.540  20.835  0.00  0.00    +0.000 C 
ENDBRANCH   2   3
BRANCH  15  16
ATOM     16  O   UNL     1      52.782  20.646  18.983  0.00  0.00    -0.561 OA
ATOM     17  H   UNL     1      51.939  21.027  19.267  0.00  0.00    +0.373 HD
ENDBRANCH  15  16
TORSDOF 2
ENDMDL
MODEL 5
REMARK VINA RESULT:      -5.4      2.807      4.544
REMARK  Name = ZINC95486310
REMARK  6 active torsions:
REMARK  status: ('A' for Active; 'I' for Inactive)
REMARK    1  A    between atoms: C1_1  and  C2_2
REMARK    2  A    between atoms: C2_2  and  C19_23
REMARK    3  A    between atoms: C10_12  and  C17_21
REMARK    4  A    between atoms: C13_15  and  O1_20
REMARK    5  A    between atoms: C14_17  and  C15_18
REMARK    6  A    between atoms: C14_17  and  C16_19
REMARK                            x       y       z     vdW  Elec       q    Type
REMARK                         _______ _______ _______ _____ _____    ______ ____
ROOT
ATOM      1  C   UNL     1      50.588  18.842  21.001  0.00  0.00    +0.029 C 
ATOM      2  C   UNL     1      50.775  20.286  20.529  0.00  0.00    -0.025 C 
ATOM      5  C   UNL     1      50.280  21.259  21.595  0.00  0.00    +0.018 C 
ATOM      6  C   UNL     1      48.783  21.097  21.856  0.00  0.00    +0.024 C 
ATOM      7  C   UNL     1      48.008  21.373  20.564  0.00  0.00    +0.030 C 
ATOM      8  C   UNL     1      48.530  20.478  19.487  0.00  0.00    -0.113 C 
ATOM      9  C   UNL     1      47.777  19.685  18.793  0.00  0.00    -0.059 C 
ATOM     10  C   UNL     1      46.294  19.575  19.017  0.00  0.00    +0.072 C 
ATOM     11  C   UNL     1      45.731  20.897  19.557  0.00  0.00    +0.021 C 
ATOM     12  C   UNL     1      44.234  20.737  19.790  0.00  0.00    -0.043 C 
ATOM     13  C   UNL     1      43.515  22.091  19.852  0.00  0.00    +0.029 C 
ATOM     14  C   UNL     1      43.606  19.996  18.585  0.00  0.00    +0.026 C 
ATOM     15  C   UNL     1      43.905  19.920  21.033  0.00  0.00    +0.165 C 
ATOM     18  C   UNL     1      44.709  20.340  22.254  0.00  0.00    -0.019 C 
ATOM     19  C   UNL     1      46.204  20.339  21.949  0.00  0.00    +0.030 C 
ATOM     20  C   UNL     1      46.507  21.302  20.802  0.00  0.00    -0.037 C 
ATOM     21  C   UNL     1      46.120  22.724  21.246  0.00  0.00    +0.017 C 
ATOM     22  C   UNL     1      50.023  20.500  19.213  0.00  0.00    +0.066 C 
ENDROOT
BRANCH   2   3
ATOM      3  C   UNL     1      52.249  20.530  20.291  0.00  0.00    -0.043 C 
ATOM      4  C   UNL     1      52.700  21.754  20.181  0.00  0.00    +0.000 C 
ENDBRANCH   2   3
BRANCH  15  16
ATOM     16  O   UNL     1      44.105  18.527  20.772  0.00  0.00    -0.561 OA
ATOM     17  H   UNL     1      45.014  18.298  20.534  0.00  0.00    +0.373 HD
ENDBRANCH  15  16
TORSDOF 2
ENDMDL
MODEL 6
REMARK VINA RESULT:      -5.4     19.724     22.340
REMARK  Name = ZINC95486310
REMARK  6 active torsions:
REMARK  status: ('A' for Active; 'I' for Inactive)
REMARK    1  A    between atoms: C1_1  and  C2_2
REMARK    2  A    between atoms: C2_2  and  C19_23
REMARK    3  A    between atoms: C10_12  and  C17_21
REMARK    4  A    between atoms: C13_15  and  O1_20
REMARK    5  A    between atoms: C14_17  and  C15_18
REMARK    6  A    between atoms: C14_17  and  C16_19
REMARK                            x       y       z     vdW  Elec       q    Type
REMARK                         _______ _______ _______ _____ _____    ______ ____
ROOT
ATOM      1  C   UNL     1      52.398  34.769   4.503  0.00  0.00    +0.029 C 
ATOM      2  C   UNL     1      52.815  34.007   5.763  0.00  0.00    -0.025 C 
ATOM      5  C   UNL     1      54.060  34.639   6.376  0.00  0.00    +0.018 C 
ATOM      6  C   UNL     1      55.257  34.563   5.429  0.00  0.00    +0.024 C 
ATOM      7  C   UNL     1      55.571  33.096   5.123  0.00  0.00    +0.030 C 
ATOM      8  C   UNL     1      54.339  32.440   4.588  0.00  0.00    -0.113 C 
ATOM      9  C   UNL     1      54.303  31.807   3.458  0.00  0.00    -0.059 C 
ATOM     10  C   UNL     1      55.502  31.686   2.559  0.00  0.00    +0.072 C 
ATOM     11  C   UNL     1      56.797  31.721   3.381  0.00  0.00    +0.021 C 
ATOM     12  C   UNL     1      57.986  31.618   2.433  0.00  0.00    -0.043 C 
ATOM     13  C   UNL     1      59.259  31.160   3.157  0.00  0.00    +0.029 C 
ATOM     14  C   UNL     1      57.701  30.525   1.375  0.00  0.00    +0.026 C 
ATOM     15  C   UNL     1      58.260  32.909   1.674  0.00  0.00    +0.165 C 
ATOM     18  C   UNL     1      58.249  34.141   2.565  0.00  0.00    -0.019 C 
ATOM     19  C   UNL     1      56.957  34.218   3.373  0.00  0.00    +0.030 C 
ATOM     20  C   UNL     1      56.809  32.973   4.247  0.00  0.00    -0.037 C 
ATOM     21  C   UNL     1      57.983  32.936   5.242  0.00  0.00    +0.017 C 
ATOM     22  C   UNL     1      53.071  32.538   5.417  0.00  0.00    +0.066 C 
ENDROOT
BRANCH   2   3
ATOM      3  C   UNL     1      51.685  34.078   6.767  0.00  0.00    -0.043 C 
ATOM      4  C   UNL     1      50.754  33.157   6.771  0.00  0.00    +0.000 C 
ENDBRANCH   2   3
BRANCH  15  16
ATOM     16  O   UNL     1      57.313  33.066   0.613  0.00  0.00    -0.561 OA
ATOM     17  H   UNL     1      56.744  33.843   0.704  0.00  0.00    +0.373 HD
ENDBRANCH  15  16
TORSDOF 2
ENDMDL
MODEL 7
REMARK VINA RESULT:      -5.3      2.784      4.042
REMARK  Name = ZINC95486310
REMARK  6 active torsions:
REMARK  status: ('A' for Active; 'I' for Inactive)
REMARK    1  A    between atoms: C1_1  and  C2_2
REMARK    2  A    between atoms: C2_2  and  C19_23
REMARK    3  A    between atoms: C10_12  and  C17_21
REMARK    4  A    between atoms: C13_15  and  O1_20
REMARK    5  A    between atoms: C14_17  and  C15_18
REMARK    6  A    between atoms: C14_17  and  C16_19
REMARK                            x       y       z     vdW  Elec       q    Type
REMARK                         _______ _______ _______ _____ _____    ______ ____
ROOT
ATOM      1  C   UNL     1      50.732  21.041  18.123  0.00  0.00    +0.029 C 
ATOM      2  C   UNL     1      50.871  19.785  18.985  0.00  0.00    -0.025 C 
ATOM      5  C   UNL     1      49.969  18.676  18.452  0.00  0.00    +0.018 C 
ATOM      6  C   UNL     1      48.493  19.066  18.521  0.00  0.00    +0.024 C 
ATOM      7  C   UNL     1      48.105  19.334  19.978  0.00  0.00    +0.030 C 
ATOM      8  C   UNL     1      49.027  20.369  20.540  0.00  0.00    -0.113 C 
ATOM      9  C   UNL     1      48.614  21.465  21.094  0.00  0.00    -0.059 C 
ATOM     10  C   UNL     1      47.156  21.813  21.211  0.00  0.00    +0.072 C 
ATOM     11  C   UNL     1      46.302  20.541  21.289  0.00  0.00    +0.021 C 
ATOM     12  C   UNL     1      44.835  20.937  21.384  0.00  0.00    -0.043 C 
ATOM     13  C   UNL     1      43.969  19.802  21.948  0.00  0.00    +0.029 C 
ATOM     14  C   UNL     1      44.685  22.103  22.391  0.00  0.00    +0.026 C 
ATOM     15  C   UNL     1      44.257  21.418  20.060  0.00  0.00    +0.165 C 
ATOM     18  C   UNL     1      44.607  20.512  18.890  0.00  0.00    -0.019 C 
ATOM     19  C   UNL     1      46.114  20.287  18.808  0.00  0.00    +0.030 C 
ATOM     20  C   UNL     1      46.621  19.647  20.099  0.00  0.00    -0.037 C 
ATOM     21  C   UNL     1      45.950  18.272  20.256  0.00  0.00    +0.017 C 
ATOM     22  C   UNL     1      50.520  20.114  20.438  0.00  0.00    +0.066 C 
ENDROOT
BRANCH   2   3
ATOM      3  C   UNL     1      52.309  19.316  18.927  0.00  0.00    -0.043 C 
ATOM      4  C   UNL     1      52.592  18.131  18.448  0.00  0.00    +0.000 C 
ENDBRANCH   2   3
BRANCH  15  16
ATOM     16  O   UNL     1      44.693  22.754  19.791  0.00  0.00    -0.561 OA
ATOM     17  H   UNL     1      44.784  23.306  20.581  0.00  0.00    +0.373 HD
ENDBRANCH  15  16
TORSDOF 2
ENDMDL
MODEL 8
REMARK VINA RESULT:      -5.0      2.173      2.916
REMARK  Name = ZINC95486310
REMARK  6 active torsions:
REMARK  status: ('A' for Active; 'I' for Inactive)
REMARK    1  A    between atoms: C1_1  and  C2_2
REMARK    2  A    between atoms: C2_2  and  C19_23
REMARK    3  A    between atoms: C10_12  and  C17_21
REMARK    4  A    between atoms: C13_15  and  O1_20
REMARK    5  A    between atoms: C14_17  and  C15_18
REMARK    6  A    between atoms: C14_17  and  C16_19
REMARK                            x       y       z     vdW  Elec       q    Type
REMARK                         _______ _______ _______ _____ _____    ______ ____
ROOT
ATOM      1  C   UNL     1      51.505  19.095  16.076  0.00  0.00    +0.029 C 
ATOM      2  C   UNL     1      51.544  19.130  17.605  0.00  0.00    -0.025 C 
ATOM      5  C   UNL     1      52.443  18.018  18.136  0.00  0.00    +0.018 C 
ATOM      6  C   UNL     1      51.910  16.635  17.766  0.00  0.00    +0.024 C 
ATOM      7  C   UNL     1      50.516  16.448  18.371  0.00  0.00    +0.030 C 
ATOM      8  C   UNL     1      49.639  17.571  17.918  0.00  0.00    -0.113 C 
ATOM      9  C   UNL     1      48.500  17.392  17.326  0.00  0.00    -0.059 C 
ATOM     10  C   UNL     1      47.955  16.025  17.018  0.00  0.00    +0.072 C 
ATOM     11  C   UNL     1      48.462  14.999  18.041  0.00  0.00    +0.021 C 
ATOM     12  C   UNL     1      47.905  13.627  17.680  0.00  0.00    -0.043 C 
ATOM     13  C   UNL     1      47.941  12.662  18.873  0.00  0.00    +0.029 C 
ATOM     14  C   UNL     1      46.408  13.765  17.312  0.00  0.00    +0.026 C 
ATOM     15  C   UNL     1      48.601  12.994  16.483  0.00  0.00    +0.165 C 
ATOM     18  C   UNL     1      50.117  13.077  16.559  0.00  0.00    -0.019 C 
ATOM     19  C   UNL     1      50.574  14.514  16.790  0.00  0.00    +0.030 C 
ATOM     20  C   UNL     1      49.982  15.051  18.093  0.00  0.00    -0.037 C 
ATOM     21  C   UNL     1      50.516  14.197  19.256  0.00  0.00    +0.017 C 
ATOM     22  C   UNL     1      50.125  18.988  18.161  0.00  0.00    +0.066 C 
ENDROOT
BRANCH   2   3
ATOM      3  C   UNL     1      52.106  20.465  18.043  0.00  0.00    -0.043 C 
ATOM      4  C   UNL     1      51.392  21.258  18.802  0.00  0.00    +0.000 C 
ENDBRANCH   2   3
BRANCH  15  16
ATOM     16  O   UNL     1      48.139  13.599  15.271  0.00  0.00    -0.561 OA
ATOM     17  H   UNL     1      48.105  14.565  15.301  0.00  0.00    +0.373 HD
ENDBRANCH  15  16
TORSDOF 2
ENDMDL
MODEL 9
REMARK VINA RESULT:      -5.0      3.902      5.259
REMARK  Name = ZINC95486310
REMARK  6 active torsions:
REMARK  status: ('A' for Active; 'I' for Inactive)
REMARK    1  A    between atoms: C1_1  and  C2_2
REMARK    2  A    between atoms: C2_2  and  C19_23
REMARK    3  A    between atoms: C10_12  and  C17_21
REMARK    4  A    between atoms: C13_15  and  O1_20
REMARK    5  A    between atoms: C14_17  and  C15_18
REMARK    6  A    between atoms: C14_17  and  C16_19
REMARK                            x       y       z     vdW  Elec       q    Type
REMARK                         _______ _______ _______ _____ _____    ______ ____
ROOT
ATOM      1  C   UNL     1      46.319  21.453  19.852  0.00  0.00    +0.029 C 
ATOM      2  C   UNL     1      44.819  21.168  19.947  0.00  0.00    -0.025 C 
ATOM      5  C   UNL     1      44.490  20.506  21.282  0.00  0.00    +0.018 C 
ATOM      6  C   UNL     1      45.181  19.151  21.425  0.00  0.00    +0.024 C 
ATOM      7  C   UNL     1      44.711  18.219  20.304  0.00  0.00    +0.030 C 
ATOM      8  C   UNL     1      44.959  18.883  18.988  0.00  0.00    -0.113 C 
ATOM      9  C   UNL     1      45.640  18.337  18.031  0.00  0.00    -0.059 C 
ATOM     10  C   UNL     1      46.268  16.976  18.159  0.00  0.00    +0.072 C 
ATOM     11  C   UNL     1      45.464  16.101  19.131  0.00  0.00    +0.021 C 
ATOM     12  C   UNL     1      46.144  14.743  19.249  0.00  0.00    -0.043 C 
ATOM     13  C   UNL     1      45.188  13.668  19.783  0.00  0.00    +0.029 C 
ATOM     14  C   UNL     1      46.559  14.256  17.840  0.00  0.00    +0.026 C 
ATOM     15  C   UNL     1      47.408  14.777  20.097  0.00  0.00    +0.165 C 
ATOM     18  C   UNL     1      47.230  15.527  21.407  0.00  0.00    -0.019 C 
ATOM     19  C   UNL     1      46.667  16.924  21.164  0.00  0.00    +0.030 C 
ATOM     20  C   UNL     1      45.315  16.831  20.458  0.00  0.00    -0.037 C 
ATOM     21  C   UNL     1      44.335  16.086  21.382  0.00  0.00    +0.017 C 
ATOM     22  C   UNL     1      44.388  20.275  18.781  0.00  0.00    +0.066 C 
ENDROOT
BRANCH   2   3
ATOM      3  C   UNL     1      44.070  22.480  19.855  0.00  0.00    -0.043 C 
ATOM      4  C   UNL     1      44.709  23.576  19.531  0.00  0.00    +0.000 C 
ENDBRANCH   2   3
BRANCH  15  16
ATOM     16  O   UNL     1      48.485  15.351  19.349  0.00  0.00    -0.561 OA
ATOM     17  H   UNL     1      48.337  16.271  19.089  0.00  0.00    +0.373 HD
ENDBRANCH  15  16
TORSDOF 2
ENDMDL
