MODEL 1
REMARK VINA RESULT:      -5.7      0.000      0.000
REMARK  Name = ZINC95486237
REMARK  22 active torsions:
REMARK  status: ('A' for Active; 'I' for Inactive)
REMARK    1  A    between atoms: C1_1  and  C2_2
REMARK    2  A    between atoms: C1_1  and  C12_23
REMARK    3  A    between atoms: C2_2  and  C3_3
REMARK    4  A    between atoms: C3_3  and  C4_4
REMARK    5  A    between atoms: C4_4  and  C5_5
REMARK    6  A    between atoms: C5_5  and  O1_6
REMARK    7  A    between atoms: O1_6  and  C6_7
REMARK    8  A    between atoms: C7_9  and  O6_22
REMARK    9  A    between atoms: C8_11  and  O5_21
REMARK   10  A    between atoms: C9_13  and  O4_20
REMARK   11  A    between atoms: C10_15  and  C11_18
REMARK   12  A    between atoms: C11_18  and  O3_19
REMARK   13  A    between atoms: C12_23  and  C13_24
REMARK   14  A    between atoms: C13_24  and  C14_25
REMARK   15  A    between atoms: C14_25  and  C15_26
REMARK   16  A    between atoms: C15_26  and  C16_28
REMARK   17  A    between atoms: C16_28  and  C17_29
REMARK   18  A    between atoms: C17_29  and  C18_30
REMARK   19  A    between atoms: C18_30  and  C19_31
REMARK   20  A    between atoms: C19_31  and  C20_32
REMARK   21  A    between atoms: C20_32  and  C21_33
REMARK   22  A    between atoms: C21_33  and  C22_34
REMARK                            x       y       z     vdW  Elec       q    Type
REMARK                         _______ _______ _______ _____ _____    ______ ____
ROOT
ATOM     18  C   UNL     1      44.767  17.748  19.732  0.00  0.00    +0.024 C 
ENDROOT
BRANCH  18  17
ATOM     17  C   UNL     1      46.087  18.516  19.656  0.00  0.00    +0.012 C 
BRANCH  17  16
ATOM     16  C   UNL     1      46.091  19.403  18.410  0.00  0.00    +0.007 C 
BRANCH  16   1
ATOM      1  C   UNL     1      46.774  20.734  18.734  0.00  0.00    +0.004 C 
BRANCH   1   2
ATOM      2  C   UNL     1      48.028  20.472  19.571  0.00  0.00    +0.004 C 
BRANCH   2   3
ATOM      3  C   UNL     1      49.265  20.913  18.786  0.00  0.00    +0.021 C 
BRANCH   3   4
ATOM      4  C   UNL     1      50.509  20.753  19.663  0.00  0.00    +0.020 C 
BRANCH   4   5
ATOM      5  C   UNL     1      51.745  20.944  18.822  0.00  0.00    +0.352 C 
ATOM     15  O   UNL     1      52.815  21.123  19.353  0.00  0.00    -0.452 OA
BRANCH   5   6
ATOM      6  C   UNL     1      51.647  20.909  17.318  0.00  0.00    +0.021 C 
BRANCH   6   7
ATOM      7  C   UNL     1      52.220  19.589  16.800  0.00  0.00    +0.019 C 
BRANCH   7   8
ATOM      8  C   UNL     1      51.088  18.728  16.237  0.00  0.00    +0.003 C 
BRANCH   8   9
ATOM      9  C   UNL     1      50.682  17.678  17.272  0.00  0.00    -0.011 C 
BRANCH   9  10
ATOM     10  C   UNL     1      49.158  17.536  17.284  0.00  0.00    +0.022 C 
BRANCH  10  11
ATOM     11  C   UNL     1      48.782  16.064  17.098  0.00  0.00    -0.076 C 
BRANCH  11  12
ATOM     12  C   UNL     1      47.335  15.865  17.468  0.00  0.00    +0.487 C 
ATOM     13  O   UNL     1      46.455  16.297  16.744  0.00  0.00    -0.710 OA
ATOM     14  O   UNL     1      47.044  15.271  18.493  0.00  0.00    -0.700 OA
ENDBRANCH  11  12
ENDBRANCH  10  11
ENDBRANCH   9  10
ENDBRANCH   8   9
ENDBRANCH   7   8
ENDBRANCH   6   7
ENDBRANCH   5   6
ENDBRANCH   4   5
ENDBRANCH   3   4
ENDBRANCH   2   3
ENDBRANCH   1   2
ENDBRANCH  16   1
ENDBRANCH  17  16
ENDBRANCH  18  17
BRANCH  18  19
ATOM     19  C   UNL     1      43.960  18.237  20.936  0.00  0.00    +0.178 C 
BRANCH  19  20
ATOM     20  O   UNL     1      42.626  18.542  20.524  0.00  0.00    -0.366 OA
BRANCH  20  21
ATOM     21  C   UNL     1      42.539  19.609  19.578  0.00  0.00    +0.286 C 
ATOM     22  C   UNL     1      41.068  19.904  19.274  0.00  0.00    +0.137 C 
ATOM     25  C   UNL     1      40.983  21.087  18.305  0.00  0.00    +0.164 C 
ATOM     28  C   UNL     1      41.703  22.291  18.921  0.00  0.00    +0.177 C 
ATOM     31  C   UNL     1      43.149  21.903  19.238  0.00  0.00    +0.190 C 
ATOM     35  O   UNL     1      43.157  20.778  20.119  0.00  0.00    -0.373 OA
BRANCH  22  23
ATOM     23  O   UNL     1      40.387  20.228  20.487  0.00  0.00    -0.540 OA
ATOM     24  H   UNL     1      40.402  21.169  20.708  0.00  0.00    +0.388 HD
ENDBRANCH  22  23
BRANCH  25  26
ATOM     26  O   UNL     1      39.612  21.415  18.072  0.00  0.00    -0.548 OA
ATOM     27  H   UNL     1      39.290  21.163  17.196  0.00  0.00    +0.386 HD
ENDBRANCH  25  26
BRANCH  28  29
ATOM     29  O   UNL     1      41.691  23.379  17.995  0.00  0.00    -0.557 OA
ATOM     30  H   UNL     1      41.969  23.138  17.100  0.00  0.00    +0.393 HD
ENDBRANCH  28  29
BRANCH  31  32
ATOM     32  C   UNL     1      43.858  23.082  19.909  0.00  0.00    +0.223 C 
BRANCH  32  33
ATOM     33  O   UNL     1      44.126  24.094  18.935  0.00  0.00    -0.568 OA
ATOM     34  H   UNL     1      44.311  24.964  19.314  0.00  0.00    +0.384 HD
ENDBRANCH  32  33
ENDBRANCH  31  32
ENDBRANCH  20  21
ENDBRANCH  19  20
ENDBRANCH  18  19
TORSDOF 22
ENDMDL
MODEL 2
REMARK VINA RESULT:      -5.2      1.742      3.663
REMARK  Name = ZINC95486237
REMARK  22 active torsions:
REMARK  status: ('A' for Active; 'I' for Inactive)
REMARK    1  A    between atoms: C1_1  and  C2_2
REMARK    2  A    between atoms: C1_1  and  C12_23
REMARK    3  A    between atoms: C2_2  and  C3_3
REMARK    4  A    between atoms: C3_3  and  C4_4
REMARK    5  A    between atoms: C4_4  and  C5_5
REMARK    6  A    between atoms: C5_5  and  O1_6
REMARK    7  A    between atoms: O1_6  and  C6_7
REMARK    8  A    between atoms: C7_9  and  O6_22
REMARK    9  A    between atoms: C8_11  and  O5_21
REMARK   10  A    between atoms: C9_13  and  O4_20
REMARK   11  A    between atoms: C10_15  and  C11_18
REMARK   12  A    between atoms: C11_18  and  O3_19
REMARK   13  A    between atoms: C12_23  and  C13_24
REMARK   14  A    between atoms: C13_24  and  C14_25
REMARK   15  A    between atoms: C14_25  and  C15_26
REMARK   16  A    between atoms: C15_26  and  C16_28
REMARK   17  A    between atoms: C16_28  and  C17_29
REMARK   18  A    between atoms: C17_29  and  C18_30
REMARK   19  A    between atoms: C18_30  and  C19_31
REMARK   20  A    between atoms: C19_31  and  C20_32
REMARK   21  A    between atoms: C20_32  and  C21_33
REMARK   22  A    between atoms: C21_33  and  C22_34
REMARK                            x       y       z     vdW  Elec       q    Type
REMARK                         _______ _______ _______ _____ _____    ______ ____
ROOT
ATOM     18  C   UNL     1      44.830  17.744  21.069  0.00  0.00    +0.024 C 
ENDROOT
BRANCH  18  17
ATOM     17  C   UNL     1      44.503  16.267  21.295  0.00  0.00    +0.012 C 
BRANCH  17  16
ATOM     16  C   UNL     1      45.354  15.407  20.359  0.00  0.00    +0.007 C 
BRANCH  16   1
ATOM      1  C   UNL     1      45.659  16.190  19.081  0.00  0.00    +0.004 C 
BRANCH   1   2
ATOM      2  C   UNL     1      47.145  16.053  18.742  0.00  0.00    +0.004 C 
BRANCH   2   3
ATOM      3  C   UNL     1      47.855  17.380  19.020  0.00  0.00    +0.021 C 
BRANCH   3   4
ATOM      4  C   UNL     1      47.210  18.489  18.187  0.00  0.00    +0.020 C 
BRANCH   4   5
ATOM      5  C   UNL     1      47.023  19.716  19.041  0.00  0.00    +0.352 C 
ATOM     15  O   UNL     1      46.350  20.634  18.639  0.00  0.00    -0.452 OA
BRANCH   5   6
ATOM      6  C   UNL     1      47.675  19.797  20.398  0.00  0.00    +0.021 C 
BRANCH   6   7
ATOM      7  C   UNL     1      48.680  20.951  20.412  0.00  0.00    +0.019 C 
BRANCH   7   8
ATOM      8  C   UNL     1      50.102  20.389  20.388  0.00  0.00    +0.003 C 
BRANCH   8   9
ATOM      9  C   UNL     1      50.909  21.093  19.295  0.00  0.00    -0.011 C 
BRANCH   9  10
ATOM     10  C   UNL     1      50.422  20.627  17.921  0.00  0.00    +0.022 C 
BRANCH  10  11
ATOM     11  C   UNL     1      50.964  19.225  17.636  0.00  0.00    -0.076 C 
BRANCH  11  12
ATOM     12  C   UNL     1      51.780  19.249  16.370  0.00  0.00    +0.487 C 
ATOM     13  O   UNL     1      52.326  20.281  16.016  0.00  0.00    -0.710 OA
ATOM     14  O   UNL     1      51.895  18.238  15.699  0.00  0.00    -0.700 OA
ENDBRANCH  11  12
ENDBRANCH  10  11
ENDBRANCH   9  10
ENDBRANCH   8   9
ENDBRANCH   7   8
ENDBRANCH   6   7
ENDBRANCH   5   6
ENDBRANCH   4   5
ENDBRANCH   3   4
ENDBRANCH   2   3
ENDBRANCH   1   2
ENDBRANCH  16   1
ENDBRANCH  17  16
ENDBRANCH  18  17
BRANCH  18  19
ATOM     19  C   UNL     1      43.636  18.602  21.490  0.00  0.00    +0.178 C 
BRANCH  19  20
ATOM     20  O   UNL     1      42.583  18.456  20.534  0.00  0.00    -0.366 OA
BRANCH  20  21
ATOM     21  C   UNL     1      42.494  19.530  19.597  0.00  0.00    +0.286 C 
ATOM     22  C   UNL     1      41.022  19.878  19.358  0.00  0.00    +0.137 C 
ATOM     25  C   UNL     1      40.937  21.069  18.398  0.00  0.00    +0.164 C 
ATOM     28  C   UNL     1      41.725  22.243  18.988  0.00  0.00    +0.177 C 
ATOM     31  C   UNL     1      43.169  21.804  19.240  0.00  0.00    +0.190 C 
ATOM     35  O   UNL     1      43.175  20.674  20.116  0.00  0.00    -0.373 OA
BRANCH  22  23
ATOM     23  O   UNL     1      40.405  20.219  20.601  0.00  0.00    -0.540 OA
ATOM     24  H   UNL     1      40.919  19.964  21.378  0.00  0.00    +0.388 HD
ENDBRANCH  22  23
BRANCH  25  26
ATOM     26  O   UNL     1      39.570  21.446  18.225  0.00  0.00    -0.548 OA
ATOM     27  H   UNL     1      39.321  21.609  17.306  0.00  0.00    +0.386 HD
ENDBRANCH  25  26
BRANCH  28  29
ATOM     29  O   UNL     1      41.712  23.337  18.067  0.00  0.00    -0.557 OA
ATOM     30  H   UNL     1      42.136  24.138  18.402  0.00  0.00    +0.393 HD
ENDBRANCH  28  29
BRANCH  31  32
ATOM     32  C   UNL     1      43.947  22.953  19.885  0.00  0.00    +0.223 C 
BRANCH  32  33
ATOM     33  O   UNL     1      44.379  23.863  18.871  0.00  0.00    -0.568 OA
ATOM     34  H   UNL     1      44.942  24.578  19.200  0.00  0.00    +0.384 HD
ENDBRANCH  32  33
ENDBRANCH  31  32
ENDBRANCH  20  21
ENDBRANCH  19  20
ENDBRANCH  18  19
TORSDOF 22
ENDMDL
MODEL 3
REMARK VINA RESULT:      -5.1      1.726      4.640
REMARK  Name = ZINC95486237
REMARK  22 active torsions:
REMARK  status: ('A' for Active; 'I' for Inactive)
REMARK    1  A    between atoms: C1_1  and  C2_2
REMARK    2  A    between atoms: C1_1  and  C12_23
REMARK    3  A    between atoms: C2_2  and  C3_3
REMARK    4  A    between atoms: C3_3  and  C4_4
REMARK    5  A    between atoms: C4_4  and  C5_5
REMARK    6  A    between atoms: C5_5  and  O1_6
REMARK    7  A    between atoms: O1_6  and  C6_7
REMARK    8  A    between atoms: C7_9  and  O6_22
REMARK    9  A    between atoms: C8_11  and  O5_21
REMARK   10  A    between atoms: C9_13  and  O4_20
REMARK   11  A    between atoms: C10_15  and  C11_18
REMARK   12  A    between atoms: C11_18  and  O3_19
REMARK   13  A    between atoms: C12_23  and  C13_24
REMARK   14  A    between atoms: C13_24  and  C14_25
REMARK   15  A    between atoms: C14_25  and  C15_26
REMARK   16  A    between atoms: C15_26  and  C16_28
REMARK   17  A    between atoms: C16_28  and  C17_29
REMARK   18  A    between atoms: C17_29  and  C18_30
REMARK   19  A    between atoms: C18_30  and  C19_31
REMARK   20  A    between atoms: C19_31  and  C20_32
REMARK   21  A    between atoms: C20_32  and  C21_33
REMARK   22  A    between atoms: C21_33  and  C22_34
REMARK                            x       y       z     vdW  Elec       q    Type
REMARK                         _______ _______ _______ _____ _____    ______ ____
ROOT
ATOM     18  C   UNL     1      44.454  16.485  21.897  0.00  0.00    +0.024 C 
ENDROOT
BRANCH  18  17
ATOM     17  C   UNL     1      44.804  16.118  20.454  0.00  0.00    +0.012 C 
BRANCH  17  16
ATOM     16  C   UNL     1      45.868  15.019  20.450  0.00  0.00    +0.007 C 
BRANCH  16   1
ATOM      1  C   UNL     1      45.520  13.975  19.387  0.00  0.00    +0.004 C 
BRANCH   1   2
ATOM      2  C   UNL     1      46.249  14.313  18.084  0.00  0.00    +0.004 C 
BRANCH   2   3
ATOM      3  C   UNL     1      47.533  15.082  18.404  0.00  0.00    +0.021 C 
BRANCH   3   4
ATOM      4  C   UNL     1      47.679  16.256  17.434  0.00  0.00    +0.020 C 
BRANCH   4   5
ATOM      5  C   UNL     1      47.346  17.542  18.147  0.00  0.00    +0.352 C 
ATOM     15  O   UNL     1      46.575  18.325  17.648  0.00  0.00    -0.452 OA
BRANCH   5   6
ATOM      6  C   UNL     1      47.975  17.848  19.482  0.00  0.00    +0.021 C 
BRANCH   6   7
ATOM      7  C   UNL     1      47.917  19.356  19.738  0.00  0.00    +0.019 C 
BRANCH   7   8
ATOM      8  C   UNL     1      49.338  19.922  19.769  0.00  0.00    +0.003 C 
BRANCH   8   9
ATOM      9  C   UNL     1      49.545  20.846  18.568  0.00  0.00    -0.011 C 
BRANCH   9  10
ATOM     10  C   UNL     1      51.028  21.206  18.452  0.00  0.00    +0.022 C 
BRANCH  10  11
ATOM     11  C   UNL     1      51.495  20.988  17.010  0.00  0.00    -0.076 C 
BRANCH  11  12
ATOM     12  C   UNL     1      52.122  19.624  16.885  0.00  0.00    +0.487 C 
ATOM     13  O   UNL     1      52.045  19.011  15.835  0.00  0.00    -0.710 OA
ATOM     14  O   UNL     1      52.707  19.134  17.836  0.00  0.00    -0.700 OA
ENDBRANCH  11  12
ENDBRANCH  10  11
ENDBRANCH   9  10
ENDBRANCH   8   9
ENDBRANCH   7   8
ENDBRANCH   6   7
ENDBRANCH   5   6
ENDBRANCH   4   5
ENDBRANCH   3   4
ENDBRANCH   2   3
ENDBRANCH   1   2
ENDBRANCH  16   1
ENDBRANCH  17  16
ENDBRANCH  18  17
BRANCH  18  19
ATOM     19  C   UNL     1      43.742  17.839  21.921  0.00  0.00    +0.178 C 
BRANCH  19  20
ATOM     20  O   UNL     1      43.209  18.122  20.626  0.00  0.00    -0.366 OA
BRANCH  20  21
ATOM     21  C   UNL     1      42.783  19.474  20.455  0.00  0.00    +0.286 C 
ATOM     22  C   UNL     1      43.941  20.308  19.900  0.00  0.00    +0.137 C 
ATOM     25  C   UNL     1      43.460  21.743  19.663  0.00  0.00    +0.164 C 
ATOM     28  C   UNL     1      42.255  21.716  18.717  0.00  0.00    +0.177 C 
ATOM     31  C   UNL     1      41.163  20.829  19.318  0.00  0.00    +0.190 C 
ATOM     35  O   UNL     1      41.686  19.517  19.541  0.00  0.00    -0.373 OA
BRANCH  22  23
ATOM     23  O   UNL     1      44.386  19.742  18.665  0.00  0.00    -0.540 OA
ATOM     24  H   UNL     1      43.680  19.356  18.131  0.00  0.00    +0.388 HD
ENDBRANCH  22  23
BRANCH  25  26
ATOM     26  O   UNL     1      44.513  22.510  19.078  0.00  0.00    -0.548 OA
ATOM     27  H   UNL     1      44.250  23.001  18.289  0.00  0.00    +0.386 HD
ENDBRANCH  25  26
BRANCH  28  29
ATOM     29  O   UNL     1      41.753  23.043  18.546  0.00  0.00    -0.557 OA
ATOM     30  H   UNL     1      40.890  23.193  18.954  0.00  0.00    +0.393 HD
ENDBRANCH  28  29
BRANCH  31  32
ATOM     32  C   UNL     1      39.980  20.749  18.350  0.00  0.00    +0.223 C 
BRANCH  32  33
ATOM     33  O   UNL     1      39.158  21.908  18.506  0.00  0.00    -0.568 OA
ATOM     34  H   UNL     1      39.585  22.630  18.987  0.00  0.00    +0.384 HD
ENDBRANCH  32  33
ENDBRANCH  31  32
ENDBRANCH  20  21
ENDBRANCH  19  20
ENDBRANCH  18  19
TORSDOF 22
ENDMDL
MODEL 4
REMARK VINA RESULT:      -5.0      1.472      2.784
REMARK  Name = ZINC95486237
REMARK  22 active torsions:
REMARK  status: ('A' for Active; 'I' for Inactive)
REMARK    1  A    between atoms: C1_1  and  C2_2
REMARK    2  A    between atoms: C1_1  and  C12_23
REMARK    3  A    between atoms: C2_2  and  C3_3
REMARK    4  A    between atoms: C3_3  and  C4_4
REMARK    5  A    between atoms: C4_4  and  C5_5
REMARK    6  A    between atoms: C5_5  and  O1_6
REMARK    7  A    between atoms: O1_6  and  C6_7
REMARK    8  A    between atoms: C7_9  and  O6_22
REMARK    9  A    between atoms: C8_11  and  O5_21
REMARK   10  A    between atoms: C9_13  and  O4_20
REMARK   11  A    between atoms: C10_15  and  C11_18
REMARK   12  A    between atoms: C11_18  and  O3_19
REMARK   13  A    between atoms: C12_23  and  C13_24
REMARK   14  A    between atoms: C13_24  and  C14_25
REMARK   15  A    between atoms: C14_25  and  C15_26
REMARK   16  A    between atoms: C15_26  and  C16_28
REMARK   17  A    between atoms: C16_28  and  C17_29
REMARK   18  A    between atoms: C17_29  and  C18_30
REMARK   19  A    between atoms: C18_30  and  C19_31
REMARK   20  A    between atoms: C19_31  and  C20_32
REMARK   21  A    between atoms: C20_32  and  C21_33
REMARK   22  A    between atoms: C21_33  and  C22_34
REMARK                            x       y       z     vdW  Elec       q    Type
REMARK                         _______ _______ _______ _____ _____    ______ ____
ROOT
ATOM     18  C   UNL     1      46.212  18.135  20.935  0.00  0.00    +0.024 C 
ENDROOT
BRANCH  18  17
ATOM     17  C   UNL     1      47.265  19.227  21.132  0.00  0.00    +0.012 C 
BRANCH  17  16
ATOM     16  C   UNL     1      47.830  19.643  19.773  0.00  0.00    +0.007 C 
BRANCH  16   1
ATOM      1  C   UNL     1      49.118  20.443  19.979  0.00  0.00    +0.004 C 
BRANCH   1   2
ATOM      2  C   UNL     1      49.586  21.009  18.637  0.00  0.00    +0.004 C 
BRANCH   2   3
ATOM      3  C   UNL     1      51.116  21.032  18.600  0.00  0.00    +0.021 C 
BRANCH   3   4
ATOM      4  C   UNL     1      51.593  20.927  17.150  0.00  0.00    +0.020 C 
BRANCH   4   5
ATOM      5  C   UNL     1      52.018  19.510  16.861  0.00  0.00    +0.352 C 
ATOM     15  O   UNL     1      52.094  19.124  15.720  0.00  0.00    -0.452 OA
BRANCH   5   6
ATOM      6  C   UNL     1      52.349  18.577  17.997  0.00  0.00    +0.021 C 
BRANCH   6   7
ATOM      7  C   UNL     1      51.313  17.452  18.052  0.00  0.00    +0.019 C 
BRANCH   7   8
ATOM      8  C   UNL     1      50.819  17.284  19.489  0.00  0.00    +0.003 C 
BRANCH   8   9
ATOM      9  C   UNL     1      49.572  16.398  19.499  0.00  0.00    -0.011 C 
BRANCH   9  10
ATOM     10  C   UNL     1      48.842  16.530  18.160  0.00  0.00    +0.022 C 
BRANCH  10  11
ATOM     11  C   UNL     1      47.411  16.006  18.305  0.00  0.00    -0.076 C 
BRANCH  11  12
ATOM     12  C   UNL     1      46.516  16.711  17.321  0.00  0.00    +0.487 C 
ATOM     13  O   UNL     1      45.828  17.650  17.685  0.00  0.00    -0.710 OA
ATOM     14  O   UNL     1      46.478  16.344  16.159  0.00  0.00    -0.700 OA
ENDBRANCH  11  12
ENDBRANCH  10  11
ENDBRANCH   9  10
ENDBRANCH   8   9
ENDBRANCH   7   8
ENDBRANCH   6   7
ENDBRANCH   5   6
ENDBRANCH   4   5
ENDBRANCH   3   4
ENDBRANCH   2   3
ENDBRANCH   1   2
ENDBRANCH  16   1
ENDBRANCH  17  16
ENDBRANCH  18  17
BRANCH  18  19
ATOM     19  C   UNL     1      44.884  18.591  21.542  0.00  0.00    +0.178 C 
BRANCH  19  20
ATOM     20  O   UNL     1      43.884  18.637  20.522  0.00  0.00    -0.366 OA
BRANCH  20  21
ATOM     21  C   UNL     1      43.263  19.915  20.375  0.00  0.00    +0.286 C 
ATOM     22  C   UNL     1      44.267  20.905  19.779  0.00  0.00    +0.137 C 
ATOM     25  C   UNL     1      43.577  22.256  19.569  0.00  0.00    +0.164 C 
ATOM     28  C   UNL     1      42.353  22.057  18.670  0.00  0.00    +0.177 C 
ATOM     31  C   UNL     1      41.422  21.024  19.309  0.00  0.00    +0.190 C 
ATOM     35  O   UNL     1      42.136  19.800  19.505  0.00  0.00    -0.373 OA
BRANCH  22  23
ATOM     23  O   UNL     1      44.740  20.409  18.526  0.00  0.00    -0.540 OA
ATOM     24  H   UNL     1      44.486  19.495  18.343  0.00  0.00    +0.388 HD
ENDBRANCH  22  23
BRANCH  25  26
ATOM     26  O   UNL     1      44.486  23.166  18.948  0.00  0.00    -0.548 OA
ATOM     27  H   UNL     1      44.395  24.080  19.247  0.00  0.00    +0.386 HD
ENDBRANCH  25  26
BRANCH  28  29
ATOM     29  O   UNL     1      41.660  23.300  18.525  0.00  0.00    -0.557 OA
ATOM     30  H   UNL     1      42.192  24.002  18.127  0.00  0.00    +0.393 HD
ENDBRANCH  28  29
BRANCH  31  32
ATOM     32  C   UNL     1      40.226  20.775  18.387  0.00  0.00    +0.223 C 
BRANCH  32  33
ATOM     33  O   UNL     1      39.338  21.893  18.448  0.00  0.00    -0.568 OA
ATOM     34  H   UNL     1      39.780  22.738  18.607  0.00  0.00    +0.384 HD
ENDBRANCH  32  33
ENDBRANCH  31  32
ENDBRANCH  20  21
ENDBRANCH  19  20
ENDBRANCH  18  19
TORSDOF 22
ENDMDL
MODEL 5
REMARK VINA RESULT:      -4.9      1.704      4.477
REMARK  Name = ZINC95486237
REMARK  22 active torsions:
REMARK  status: ('A' for Active; 'I' for Inactive)
REMARK    1  A    between atoms: C1_1  and  C2_2
REMARK    2  A    between atoms: C1_1  and  C12_23
REMARK    3  A    between atoms: C2_2  and  C3_3
REMARK    4  A    between atoms: C3_3  and  C4_4
REMARK    5  A    between atoms: C4_4  and  C5_5
REMARK    6  A    between atoms: C5_5  and  O1_6
REMARK    7  A    between atoms: O1_6  and  C6_7
REMARK    8  A    between atoms: C7_9  and  O6_22
REMARK    9  A    between atoms: C8_11  and  O5_21
REMARK   10  A    between atoms: C9_13  and  O4_20
REMARK   11  A    between atoms: C10_15  and  C11_18
REMARK   12  A    between atoms: C11_18  and  O3_19
REMARK   13  A    between atoms: C12_23  and  C13_24
REMARK   14  A    between atoms: C13_24  and  C14_25
REMARK   15  A    between atoms: C14_25  and  C15_26
REMARK   16  A    between atoms: C15_26  and  C16_28
REMARK   17  A    between atoms: C16_28  and  C17_29
REMARK   18  A    between atoms: C17_29  and  C18_30
REMARK   19  A    between atoms: C18_30  and  C19_31
REMARK   20  A    between atoms: C19_31  and  C20_32
REMARK   21  A    between atoms: C20_32  and  C21_33
REMARK   22  A    between atoms: C21_33  and  C22_34
REMARK                            x       y       z     vdW  Elec       q    Type
REMARK                         _______ _______ _______ _____ _____    ______ ____
ROOT
ATOM     18  C   UNL     1      45.708  17.820  20.375  0.00  0.00    +0.024 C 
ENDROOT
BRANCH  18  17
ATOM     17  C   UNL     1      45.162  16.394  20.289  0.00  0.00    +0.012 C 
BRANCH  17  16
ATOM     16  C   UNL     1      46.015  15.468  21.158  0.00  0.00    +0.007 C 
BRANCH  16   1
ATOM      1  C   UNL     1      46.407  14.229  20.350  0.00  0.00    +0.004 C 
BRANCH   1   2
ATOM      2  C   UNL     1      45.441  14.061  19.175  0.00  0.00    +0.004 C 
BRANCH   2   3
ATOM      3  C   UNL     1      46.234  13.737  17.907  0.00  0.00    +0.021 C 
BRANCH   3   4
ATOM      4  C   UNL     1      47.504  14.589  17.867  0.00  0.00    +0.020 C 
BRANCH   4   5
ATOM      5  C   UNL     1      47.222  15.879  17.140  0.00  0.00    +0.352 C 
ATOM     15  O   UNL     1      46.371  15.915  16.284  0.00  0.00    -0.452 OA
BRANCH   5   6
ATOM      6  C   UNL     1      48.000  17.123  17.483  0.00  0.00    +0.021 C 
BRANCH   6   7
ATOM      7  C   UNL     1      49.102  16.775  18.485  0.00  0.00    +0.019 C 
BRANCH   7   8
ATOM      8  C   UNL     1      49.213  17.889  19.528  0.00  0.00    +0.003 C 
BRANCH   8   9
ATOM      9  C   UNL     1      49.598  19.198  18.837  0.00  0.00    -0.011 C 
BRANCH   9  10
ATOM     10  C   UNL     1      51.048  19.114  18.355  0.00  0.00    +0.022 C 
BRANCH  10  11
ATOM     11  C   UNL     1      51.562  20.520  18.037  0.00  0.00    -0.076 C 
BRANCH  11  12
ATOM     12  C   UNL     1      51.738  20.666  16.548  0.00  0.00    +0.487 C 
ATOM     13  O   UNL     1      51.390  21.693  15.990  0.00  0.00    -0.710 OA
ATOM     14  O   UNL     1      52.228  19.757  15.900  0.00  0.00    -0.700 OA
ENDBRANCH  11  12
ENDBRANCH  10  11
ENDBRANCH   9  10
ENDBRANCH   8   9
ENDBRANCH   7   8
ENDBRANCH   6   7
ENDBRANCH   5   6
ENDBRANCH   4   5
ENDBRANCH   3   4
ENDBRANCH   2   3
ENDBRANCH   1   2
ENDBRANCH  16   1
ENDBRANCH  17  16
ENDBRANCH  18  17
BRANCH  18  19
ATOM     19  C   UNL     1      44.717  18.702  21.137  0.00  0.00    +0.178 C 
BRANCH  19  20
ATOM     20  O   UNL     1      43.415  18.563  20.563  0.00  0.00    -0.366 OA
BRANCH  20  21
ATOM     21  C   UNL     1      43.083  19.584  19.621  0.00  0.00    +0.286 C 
ATOM     22  C   UNL     1      41.567  19.607  19.407  0.00  0.00    +0.137 C 
ATOM     25  C   UNL     1      41.213  20.743  18.442  0.00  0.00    +0.164 C 
ATOM     28  C   UNL     1      41.741  22.064  19.011  0.00  0.00    +0.177 C 
ATOM     31  C   UNL     1      43.249  21.946  19.239  0.00  0.00    +0.190 C 
ATOM     35  O   UNL     1      43.512  20.852  20.121  0.00  0.00    -0.373 OA
BRANCH  22  23
ATOM     23  O   UNL     1      40.912  19.820  20.659  0.00  0.00    -0.540 OA
ATOM     24  H   UNL     1      40.600  19.010  21.084  0.00  0.00    +0.388 HD
ENDBRANCH  22  23
BRANCH  25  26
ATOM     26  O   UNL     1      39.794  20.818  18.293  0.00  0.00    -0.548 OA
ATOM     27  H   UNL     1      39.304  20.236  18.890  0.00  0.00    +0.386 HD
ENDBRANCH  25  26
BRANCH  28  29
ATOM     29  O   UNL     1      41.478  23.121  18.084  0.00  0.00    -0.557 OA
ATOM     30  H   UNL     1      41.695  22.902  17.167  0.00  0.00    +0.393 HD
ENDBRANCH  28  29
BRANCH  31  32
ATOM     32  C   UNL     1      43.774  23.241  19.863  0.00  0.00    +0.223 C 
BRANCH  32  33
ATOM     33  O   UNL     1      43.931  24.231  18.844  0.00  0.00    -0.568 OA
ATOM     34  H   UNL     1      43.298  24.960  18.905  0.00  0.00    +0.384 HD
ENDBRANCH  32  33
ENDBRANCH  31  32
ENDBRANCH  20  21
ENDBRANCH  19  20
ENDBRANCH  18  19
TORSDOF 22
ENDMDL
MODEL 6
REMARK VINA RESULT:      -4.9      1.879      4.265
REMARK  Name = ZINC95486237
REMARK  22 active torsions:
REMARK  status: ('A' for Active; 'I' for Inactive)
REMARK    1  A    between atoms: C1_1  and  C2_2
REMARK    2  A    between atoms: C1_1  and  C12_23
REMARK    3  A    between atoms: C2_2  and  C3_3
REMARK    4  A    between atoms: C3_3  and  C4_4
REMARK    5  A    between atoms: C4_4  and  C5_5
REMARK    6  A    between atoms: C5_5  and  O1_6
REMARK    7  A    between atoms: O1_6  and  C6_7
REMARK    8  A    between atoms: C7_9  and  O6_22
REMARK    9  A    between atoms: C8_11  and  O5_21
REMARK   10  A    between atoms: C9_13  and  O4_20
REMARK   11  A    between atoms: C10_15  and  C11_18
REMARK   12  A    between atoms: C11_18  and  O3_19
REMARK   13  A    between atoms: C12_23  and  C13_24
REMARK   14  A    between atoms: C13_24  and  C14_25
REMARK   15  A    between atoms: C14_25  and  C15_26
REMARK   16  A    between atoms: C15_26  and  C16_28
REMARK   17  A    between atoms: C16_28  and  C17_29
REMARK   18  A    between atoms: C17_29  and  C18_30
REMARK   19  A    between atoms: C18_30  and  C19_31
REMARK   20  A    between atoms: C19_31  and  C20_32
REMARK   21  A    between atoms: C20_32  and  C21_33
REMARK   22  A    between atoms: C21_33  and  C22_34
REMARK                            x       y       z     vdW  Elec       q    Type
REMARK                         _______ _______ _______ _____ _____    ______ ____
ROOT
ATOM     18  C   UNL     1      49.480  20.068  20.007  0.00  0.00    +0.024 C 
ENDROOT
BRANCH  18  17
ATOM     17  C   UNL     1      50.757  20.813  20.397  0.00  0.00    +0.012 C 
BRANCH  17  16
ATOM     16  C   UNL     1      51.566  21.135  19.139  0.00  0.00    +0.007 C 
BRANCH  16   1
ATOM      1  C   UNL     1      50.637  21.141  17.923  0.00  0.00    +0.004 C 
BRANCH   1   2
ATOM      2  C   UNL     1      51.466  20.978  16.647  0.00  0.00    +0.004 C 
BRANCH   2   3
ATOM      3  C   UNL     1      52.223  19.649  16.698  0.00  0.00    +0.021 C 
BRANCH   3   4
ATOM      4  C   UNL     1      51.319  18.527  16.185  0.00  0.00    +0.020 C 
BRANCH   4   5
ATOM      5  C   UNL     1      50.952  17.614  17.327  0.00  0.00    +0.352 C 
ATOM     15  O   UNL     1      51.695  17.502  18.272  0.00  0.00    -0.452 OA
BRANCH   5   6
ATOM      6  C   UNL     1      49.659  16.842  17.289  0.00  0.00    +0.021 C 
BRANCH   6   7
ATOM      7  C   UNL     1      48.484  17.808  17.454  0.00  0.00    +0.019 C 
BRANCH   7   8
ATOM      8  C   UNL     1      47.191  17.117  17.018  0.00  0.00    +0.003 C 
BRANCH   8   9
ATOM      9  C   UNL     1      46.121  17.311  18.094  0.00  0.00    -0.011 C 
BRANCH   9  10
ATOM     10  C   UNL     1      46.474  16.469  19.322  0.00  0.00    +0.022 C 
BRANCH  10  11
ATOM     11  C   UNL     1      45.384  15.419  19.552  0.00  0.00    -0.076 C 
BRANCH  11  12
ATOM     12  C   UNL     1      45.836  14.095  18.996  0.00  0.00    +0.487 C 
ATOM     13  O   UNL     1      45.047  13.169  18.908  0.00  0.00    -0.710 OA
ATOM     14  O   UNL     1      46.990  13.948  18.633  0.00  0.00    -0.700 OA
ENDBRANCH  11  12
ENDBRANCH  10  11
ENDBRANCH   9  10
ENDBRANCH   8   9
ENDBRANCH   7   8
ENDBRANCH   6   7
ENDBRANCH   5   6
ENDBRANCH   4   5
ENDBRANCH   3   4
ENDBRANCH   2   3
ENDBRANCH   1   2
ENDBRANCH  16   1
ENDBRANCH  17  16
ENDBRANCH  18  17
BRANCH  18  19
ATOM     19  C   UNL     1      48.366  20.410  20.999  0.00  0.00    +0.178 C 
BRANCH  19  20
ATOM     20  O   UNL     1      47.198  19.647  20.686  0.00  0.00    -0.366 OA
BRANCH  20  21
ATOM     21  C   UNL     1      45.981  20.390  20.764  0.00  0.00    +0.286 C 
ATOM     22  C   UNL     1      45.993  21.503  19.712  0.00  0.00    +0.137 C 
ATOM     25  C   UNL     1      44.661  22.257  19.762  0.00  0.00    +0.164 C 
ATOM     28  C   UNL     1      43.516  21.262  19.544  0.00  0.00    +0.177 C 
ATOM     31  C   UNL     1      43.599  20.160  20.602  0.00  0.00    +0.190 C 
ATOM     35  O   UNL     1      44.874  19.519  20.521  0.00  0.00    -0.373 OA
BRANCH  22  23
ATOM     23  O   UNL     1      46.172  20.931  18.415  0.00  0.00    -0.540 OA
ATOM     24  H   UNL     1      46.985  21.206  17.971  0.00  0.00    +0.388 HD
ENDBRANCH  22  23
BRANCH  25  26
ATOM     26  O   UNL     1      44.636  23.250  18.736  0.00  0.00    -0.548 OA
ATOM     27  H   UNL     1      45.512  23.530  18.438  0.00  0.00    +0.386 HD
ENDBRANCH  25  26
BRANCH  28  29
ATOM     29  O   UNL     1      42.264  21.943  19.659  0.00  0.00    -0.557 OA
ATOM     30  H   UNL     1      42.339  22.908  19.649  0.00  0.00    +0.393 HD
ENDBRANCH  28  29
BRANCH  31  32
ATOM     32  C   UNL     1      42.494  19.130  20.354  0.00  0.00    +0.223 C 
BRANCH  32  33
ATOM     33  O   UNL     1      41.318  19.513  21.071  0.00  0.00    -0.568 OA
ATOM     34  H   UNL     1      41.074  18.901  21.779  0.00  0.00    +0.384 HD
ENDBRANCH  32  33
ENDBRANCH  31  32
ENDBRANCH  20  21
ENDBRANCH  19  20
ENDBRANCH  18  19
TORSDOF 22
ENDMDL
MODEL 7
REMARK VINA RESULT:      -4.9      3.252      6.266
REMARK  Name = ZINC95486237
REMARK  22 active torsions:
REMARK  status: ('A' for Active; 'I' for Inactive)
REMARK    1  A    between atoms: C1_1  and  C2_2
REMARK    2  A    between atoms: C1_1  and  C12_23
REMARK    3  A    between atoms: C2_2  and  C3_3
REMARK    4  A    between atoms: C3_3  and  C4_4
REMARK    5  A    between atoms: C4_4  and  C5_5
REMARK    6  A    between atoms: C5_5  and  O1_6
REMARK    7  A    between atoms: O1_6  and  C6_7
REMARK    8  A    between atoms: C7_9  and  O6_22
REMARK    9  A    between atoms: C8_11  and  O5_21
REMARK   10  A    between atoms: C9_13  and  O4_20
REMARK   11  A    between atoms: C10_15  and  C11_18
REMARK   12  A    between atoms: C11_18  and  O3_19
REMARK   13  A    between atoms: C12_23  and  C13_24
REMARK   14  A    between atoms: C13_24  and  C14_25
REMARK   15  A    between atoms: C14_25  and  C15_26
REMARK   16  A    between atoms: C15_26  and  C16_28
REMARK   17  A    between atoms: C16_28  and  C17_29
REMARK   18  A    between atoms: C17_29  and  C18_30
REMARK   19  A    between atoms: C18_30  and  C19_31
REMARK   20  A    between atoms: C19_31  and  C20_32
REMARK   21  A    between atoms: C20_32  and  C21_33
REMARK   22  A    between atoms: C21_33  and  C22_34
REMARK                            x       y       z     vdW  Elec       q    Type
REMARK                         _______ _______ _______ _____ _____    ______ ____
ROOT
ATOM     18  C   UNL     1      44.146  17.072  20.912  0.00  0.00    +0.024 C 
ENDROOT
BRANCH  18  17
ATOM     17  C   UNL     1      43.660  18.357  21.584  0.00  0.00    +0.012 C 
BRANCH  17  16
ATOM     16  C   UNL     1      42.721  19.106  20.636  0.00  0.00    +0.007 C 
BRANCH  16   1
ATOM      1  C   UNL     1      43.402  20.388  20.152  0.00  0.00    +0.004 C 
BRANCH   1   2
ATOM      2  C   UNL     1      44.151  20.105  18.848  0.00  0.00    +0.004 C 
BRANCH   2   3
ATOM      3  C   UNL     1      45.485  20.855  18.854  0.00  0.00    +0.021 C 
BRANCH   3   4
ATOM      4  C   UNL     1      46.635  19.850  18.767  0.00  0.00    +0.020 C 
BRANCH   4   5
ATOM      5  C   UNL     1      47.829  20.385  19.515  0.00  0.00    +0.352 C 
ATOM     15  O   UNL     1      47.785  20.505  20.716  0.00  0.00    -0.452 OA
BRANCH   5   6
ATOM      6  C   UNL     1      49.078  20.770  18.764  0.00  0.00    +0.021 C 
BRANCH   6   7
ATOM      7  C   UNL     1      50.274  20.748  19.719  0.00  0.00    +0.019 C 
BRANCH   7   8
ATOM      8  C   UNL     1      51.540  21.146  18.960  0.00  0.00    +0.003 C 
BRANCH   8   9
ATOM      9  C   UNL     1      51.259  21.131  17.456  0.00  0.00    -0.011 C 
BRANCH   9  10
ATOM     10  C   UNL     1      52.256  20.202  16.760  0.00  0.00    +0.022 C 
BRANCH  10  11
ATOM     11  C   UNL     1      51.493  19.128  15.979  0.00  0.00    -0.076 C 
BRANCH  11  12
ATOM     12  C   UNL     1      51.155  17.984  16.899  0.00  0.00    +0.487 C 
ATOM     13  O   UNL     1      50.001  17.603  17.000  0.00  0.00    -0.710 OA
ATOM     14  O   UNL     1      52.035  17.438  17.542  0.00  0.00    -0.700 OA
ENDBRANCH  11  12
ENDBRANCH  10  11
ENDBRANCH   9  10
ENDBRANCH   8   9
ENDBRANCH   7   8
ENDBRANCH   6   7
ENDBRANCH   5   6
ENDBRANCH   4   5
ENDBRANCH   3   4
ENDBRANCH   2   3
ENDBRANCH   1   2
ENDBRANCH  16   1
ENDBRANCH  17  16
ENDBRANCH  18  17
BRANCH  18  19
ATOM     19  C   UNL     1      45.664  16.960  21.063  0.00  0.00    +0.178 C 
BRANCH  19  20
ATOM     20  O   UNL     1      46.096  15.677  20.604  0.00  0.00    -0.366 OA
BRANCH  20  21
ATOM     21  C   UNL     1      45.898  15.463  19.206  0.00  0.00    +0.286 C 
ATOM     22  C   UNL     1      46.703  16.495  18.412  0.00  0.00    +0.137 C 
ATOM     25  C   UNL     1      46.533  16.222  16.915  0.00  0.00    +0.164 C 
ATOM     28  C   UNL     1      46.973  14.786  16.616  0.00  0.00    +0.177 C 
ATOM     31  C   UNL     1      46.157  13.820  17.478  0.00  0.00    +0.190 C 
ATOM     35  O   UNL     1      46.336  14.148  18.857  0.00  0.00    -0.373 OA
BRANCH  22  23
ATOM     23  O   UNL     1      48.085  16.395  18.763  0.00  0.00    -0.540 OA
ATOM     24  H   UNL     1      48.292  16.731  19.645  0.00  0.00    +0.388 HD
ENDBRANCH  22  23
BRANCH  25  26
ATOM     26  O   UNL     1      47.338  17.136  16.168  0.00  0.00    -0.548 OA
ATOM     27  H   UNL     1      47.356  18.032  16.531  0.00  0.00    +0.386 HD
ENDBRANCH  25  26
BRANCH  28  29
ATOM     29  O   UNL     1      46.751  14.497  15.233  0.00  0.00    -0.557 OA
ATOM     30  H   UNL     1      46.803  15.271  14.656  0.00  0.00    +0.393 HD
ENDBRANCH  28  29
BRANCH  31  32
ATOM     32  C   UNL     1      46.633  12.387  17.228  0.00  0.00    +0.223 C 
BRANCH  32  33
ATOM     33  O   UNL     1      45.925  11.837  16.115  0.00  0.00    -0.568 OA
ATOM     34  H   UNL     1      45.062  12.245  15.958  0.00  0.00    +0.384 HD
ENDBRANCH  32  33
ENDBRANCH  31  32
ENDBRANCH  20  21
ENDBRANCH  19  20
ENDBRANCH  18  19
TORSDOF 22
ENDMDL
MODEL 8
REMARK VINA RESULT:      -4.9      2.107      7.061
REMARK  Name = ZINC95486237
REMARK  22 active torsions:
REMARK  status: ('A' for Active; 'I' for Inactive)
REMARK    1  A    between atoms: C1_1  and  C2_2
REMARK    2  A    between atoms: C1_1  and  C12_23
REMARK    3  A    between atoms: C2_2  and  C3_3
REMARK    4  A    between atoms: C3_3  and  C4_4
REMARK    5  A    between atoms: C4_4  and  C5_5
REMARK    6  A    between atoms: C5_5  and  O1_6
REMARK    7  A    between atoms: O1_6  and  C6_7
REMARK    8  A    between atoms: C7_9  and  O6_22
REMARK    9  A    between atoms: C8_11  and  O5_21
REMARK   10  A    between atoms: C9_13  and  O4_20
REMARK   11  A    between atoms: C10_15  and  C11_18
REMARK   12  A    between atoms: C11_18  and  O3_19
REMARK   13  A    between atoms: C12_23  and  C13_24
REMARK   14  A    between atoms: C13_24  and  C14_25
REMARK   15  A    between atoms: C14_25  and  C15_26
REMARK   16  A    between atoms: C15_26  and  C16_28
REMARK   17  A    between atoms: C16_28  and  C17_29
REMARK   18  A    between atoms: C17_29  and  C18_30
REMARK   19  A    between atoms: C18_30  and  C19_31
REMARK   20  A    between atoms: C19_31  and  C20_32
REMARK   21  A    between atoms: C20_32  and  C21_33
REMARK   22  A    between atoms: C21_33  and  C22_34
REMARK                            x       y       z     vdW  Elec       q    Type
REMARK                         _______ _______ _______ _____ _____    ______ ____
ROOT
ATOM     18  C   UNL     1      44.334  16.979  21.257  0.00  0.00    +0.024 C 
ENDROOT
BRANCH  18  17
ATOM     17  C   UNL     1      43.234  17.194  22.297  0.00  0.00    +0.012 C 
BRANCH  17  16
ATOM     16  C   UNL     1      42.398  18.416  21.912  0.00  0.00    +0.007 C 
BRANCH  16   1
ATOM      1  C   UNL     1      42.572  18.703  20.419  0.00  0.00    +0.004 C 
BRANCH   1   2
ATOM      2  C   UNL     1      41.453  19.635  19.946  0.00  0.00    +0.004 C 
BRANCH   2   3
ATOM      3  C   UNL     1      42.046  20.735  19.064  0.00  0.00    +0.021 C 
BRANCH   3   4
ATOM      4  C   UNL     1      43.565  20.569  18.992  0.00  0.00    +0.020 C 
BRANCH   4   5
ATOM      5  C   UNL     1      44.233  21.735  19.674  0.00  0.00    +0.352 C 
ATOM     15  O   UNL     1      43.659  22.794  19.757  0.00  0.00    -0.452 OA
BRANCH   5   6
ATOM      6  C   UNL     1      45.615  21.578  20.255  0.00  0.00    +0.021 C 
BRANCH   6   7
ATOM      7  C   UNL     1      46.110  20.151  20.014  0.00  0.00    +0.019 C 
BRANCH   7   8
ATOM      8  C   UNL     1      47.287  20.177  19.038  0.00  0.00    +0.003 C 
BRANCH   8   9
ATOM      9  C   UNL     1      48.530  20.710  19.752  0.00  0.00    -0.011 C 
BRANCH   9  10
ATOM     10  C   UNL     1      49.673  20.858  18.744  0.00  0.00    +0.022 C 
BRANCH  10  11
ATOM     11  C   UNL     1      50.605  19.649  18.849  0.00  0.00    -0.076 C 
BRANCH  11  12
ATOM     12  C   UNL     1      50.621  18.912  17.535  0.00  0.00    +0.487 C 
ATOM     13  O   UNL     1      51.369  19.272  16.642  0.00  0.00    -0.710 OA
ATOM     14  O   UNL     1      49.886  17.954  17.365  0.00  0.00    -0.700 OA
ENDBRANCH  11  12
ENDBRANCH  10  11
ENDBRANCH   9  10
ENDBRANCH   8   9
ENDBRANCH   7   8
ENDBRANCH   6   7
ENDBRANCH   5   6
ENDBRANCH   4   5
ENDBRANCH   3   4
ENDBRANCH   2   3
ENDBRANCH   1   2
ENDBRANCH  16   1
ENDBRANCH  17  16
ENDBRANCH  18  17
BRANCH  18  19
ATOM     19  C   UNL     1      44.942  15.587  21.437  0.00  0.00    +0.178 C 
BRANCH  19  20
ATOM     20  O   UNL     1      46.146  15.489  20.673  0.00  0.00    -0.366 OA
BRANCH  20  21
ATOM     21  C   UNL     1      45.933  15.350  19.267  0.00  0.00    +0.286 C 
ATOM     22  C   UNL     1      46.731  16.423  18.521  0.00  0.00    +0.137 C 
ATOM     25  C   UNL     1      46.544  16.231  17.013  0.00  0.00    +0.164 C 
ATOM     28  C   UNL     1      46.980  14.812  16.633  0.00  0.00    +0.177 C 
ATOM     31  C   UNL     1      46.173  13.802  17.451  0.00  0.00    +0.190 C 
ATOM     35  O   UNL     1      46.367  14.056  18.844  0.00  0.00    -0.373 OA
BRANCH  22  23
ATOM     23  O   UNL     1      48.116  16.304  18.852  0.00  0.00    -0.540 OA
ATOM     24  H   UNL     1      48.695  16.880  18.336  0.00  0.00    +0.388 HD
ENDBRANCH  22  23
BRANCH  25  26
ATOM     26  O   UNL     1      47.342  17.183  16.308  0.00  0.00    -0.548 OA
ATOM     27  H   UNL     1      47.423  17.004  15.361  0.00  0.00    +0.386 HD
ENDBRANCH  25  26
BRANCH  28  29
ATOM     29  O   UNL     1      46.744  14.597  15.240  0.00  0.00    -0.557 OA
ATOM     30  H   UNL     1      47.546  14.432  14.725  0.00  0.00    +0.393 HD
ENDBRANCH  28  29
BRANCH  31  32
ATOM     32  C   UNL     1      46.645  12.384  17.121  0.00  0.00    +0.223 C 
BRANCH  32  33
ATOM     33  O   UNL     1      45.901  11.881  16.009  0.00  0.00    -0.568 OA
ATOM     34  H   UNL     1      46.356  11.187  15.513  0.00  0.00    +0.384 HD
ENDBRANCH  32  33
ENDBRANCH  31  32
ENDBRANCH  20  21
ENDBRANCH  19  20
ENDBRANCH  18  19
TORSDOF 22
ENDMDL
MODEL 9
REMARK VINA RESULT:      -4.9      1.935      3.954
REMARK  Name = ZINC95486237
REMARK  22 active torsions:
REMARK  status: ('A' for Active; 'I' for Inactive)
REMARK    1  A    between atoms: C1_1  and  C2_2
REMARK    2  A    between atoms: C1_1  and  C12_23
REMARK    3  A    between atoms: C2_2  and  C3_3
REMARK    4  A    between atoms: C3_3  and  C4_4
REMARK    5  A    between atoms: C4_4  and  C5_5
REMARK    6  A    between atoms: C5_5  and  O1_6
REMARK    7  A    between atoms: O1_6  and  C6_7
REMARK    8  A    between atoms: C7_9  and  O6_22
REMARK    9  A    between atoms: C8_11  and  O5_21
REMARK   10  A    between atoms: C9_13  and  O4_20
REMARK   11  A    between atoms: C10_15  and  C11_18
REMARK   12  A    between atoms: C11_18  and  O3_19
REMARK   13  A    between atoms: C12_23  and  C13_24
REMARK   14  A    between atoms: C13_24  and  C14_25
REMARK   15  A    between atoms: C14_25  and  C15_26
REMARK   16  A    between atoms: C15_26  and  C16_28
REMARK   17  A    between atoms: C16_28  and  C17_29
REMARK   18  A    between atoms: C17_29  and  C18_30
REMARK   19  A    between atoms: C18_30  and  C19_31
REMARK   20  A    between atoms: C19_31  and  C20_32
REMARK   21  A    between atoms: C20_32  and  C21_33
REMARK   22  A    between atoms: C21_33  and  C22_34
REMARK                            x       y       z     vdW  Elec       q    Type
REMARK                         _______ _______ _______ _____ _____    ______ ____
ROOT
ATOM     18  C   UNL     1      49.229  20.653  19.003  0.00  0.00    +0.024 C 
ENDROOT
BRANCH  18  17
ATOM     17  C   UNL     1      50.613  20.729  19.648  0.00  0.00    +0.012 C 
BRANCH  17  16
ATOM     16  C   UNL     1      51.640  21.169  18.604  0.00  0.00    +0.007 C 
BRANCH  16   1
ATOM      1  C   UNL     1      50.934  21.425  17.270  0.00  0.00    +0.004 C 
BRANCH   1   2
ATOM      2  C   UNL     1      51.700  20.725  16.146  0.00  0.00    +0.004 C 
BRANCH   2   3
ATOM      3  C   UNL     1      52.356  19.454  16.691  0.00  0.00    +0.021 C 
BRANCH   3   4
ATOM      4  C   UNL     1      51.361  18.294  16.618  0.00  0.00    +0.020 C 
BRANCH   4   5
ATOM      5  C   UNL     1      51.402  17.514  17.906  0.00  0.00    +0.352 C 
ATOM     15  O   UNL     1      52.454  17.344  18.475  0.00  0.00    -0.452 OA
BRANCH   5   6
ATOM      6  C   UNL     1      50.131  16.947  18.485  0.00  0.00    +0.021 C 
BRANCH   6   7
ATOM      7  C   UNL     1      48.963  17.255  17.547  0.00  0.00    +0.019 C 
BRANCH   7   8
ATOM      8  C   UNL     1      48.340  15.946  17.060  0.00  0.00    +0.003 C 
BRANCH   8   9
ATOM      9  C   UNL     1      47.710  15.209  18.244  0.00  0.00    -0.011 C 
BRANCH   9  10
ATOM     10  C   UNL     1      46.417  15.918  18.655  0.00  0.00    +0.022 C 
BRANCH  10  11
ATOM     11  C   UNL     1      46.439  16.184  20.162  0.00  0.00    -0.076 C 
BRANCH  11  12
ATOM     12  C   UNL     1      45.238  15.540  20.804  0.00  0.00    +0.487 C 
ATOM     13  O   UNL     1      45.158  14.325  20.867  0.00  0.00    -0.710 OA
ATOM     14  O   UNL     1      44.345  16.233  21.260  0.00  0.00    -0.700 OA
ENDBRANCH  11  12
ENDBRANCH  10  11
ENDBRANCH   9  10
ENDBRANCH   8   9
ENDBRANCH   7   8
ENDBRANCH   6   7
ENDBRANCH   5   6
ENDBRANCH   4   5
ENDBRANCH   3   4
ENDBRANCH   2   3
ENDBRANCH   1   2
ENDBRANCH  16   1
ENDBRANCH  17  16
ENDBRANCH  18  17
BRANCH  18  19
ATOM     19  C   UNL     1      48.206  20.189  20.042  0.00  0.00    +0.178 C 
BRANCH  19  20
ATOM     20  O   UNL     1      47.132  19.512  19.385  0.00  0.00    -0.366 OA
BRANCH  20  21
ATOM     21  C   UNL     1      46.017  20.350  19.078  0.00  0.00    +0.286 C 
ATOM     22  C   UNL     1      44.717  19.568  19.288  0.00  0.00    +0.137 C 
ATOM     25  C   UNL     1      43.526  20.490  19.013  0.00  0.00    +0.164 C 
ATOM     28  C   UNL     1      43.622  21.715  19.928  0.00  0.00    +0.177 C 
ATOM     31  C   UNL     1      44.963  22.414  19.693  0.00  0.00    +0.190 C 
ATOM     35  O   UNL     1      46.028  21.492  19.936  0.00  0.00    -0.373 OA
BRANCH  22  23
ATOM     23  O   UNL     1      44.658  19.095  20.635  0.00  0.00    -0.540 OA
ATOM     24  H   UNL     1      44.019  18.383  20.774  0.00  0.00    +0.388 HD
ENDBRANCH  22  23
BRANCH  25  26
ATOM     26  O   UNL     1      42.309  19.789  19.276  0.00  0.00    -0.548 OA
ATOM     27  H   UNL     1      42.414  18.830  19.342  0.00  0.00    +0.386 HD
ENDBRANCH  25  26
BRANCH  28  29
ATOM     29  O   UNL     1      42.553  22.617  19.630  0.00  0.00    -0.557 OA
ATOM     30  H   UNL     1      42.157  22.484  18.758  0.00  0.00    +0.393 HD
ENDBRANCH  28  29
BRANCH  31  32
ATOM     32  C   UNL     1      45.091  23.605  20.646  0.00  0.00    +0.223 C 
BRANCH  32  33
ATOM     33  O   UNL     1      44.283  23.379  21.802  0.00  0.00    -0.568 OA
ATOM     34  H   UNL     1      43.787  24.157  22.093  0.00  0.00    +0.384 HD
ENDBRANCH  32  33
ENDBRANCH  31  32
ENDBRANCH  20  21
ENDBRANCH  19  20
ENDBRANCH  18  19
TORSDOF 22
ENDMDL
