MODEL 1
REMARK VINA RESULT:      -6.1      0.000      0.000
REMARK  Name = ZINC95486306
REMARK  6 active torsions:
REMARK  status: ('A' for Active; 'I' for Inactive)
REMARK    1  A    between atoms: C1_1  and  C2_2
REMARK    2  A    between atoms: C12_16  and  O3_27
REMARK    3  A    between atoms: C13_17  and  C20_26
REMARK    4  A    between atoms: C14_18  and  O2_25
REMARK    5  A    between atoms: C17_22  and  C18_23
REMARK    6  A    between atoms: C17_22  and  C19_24
REMARK                            x       y       z     vdW  Elec       q    Type
REMARK                         _______ _______ _______ _____ _____    ______ ____
ROOT
ATOM      1  C   UNL     1      41.607  18.786  21.257  0.00  0.00    +0.030 C 
ATOM      2  C   UNL     1      42.034  18.975  19.802  0.00  0.00    +0.058 C 
ATOM      3  C   UNL     1      41.461  20.271  19.298  0.00  0.00    -0.174 A 
ATOM      4  C   UNL     1      40.139  20.549  18.904  0.00  0.00    -0.056 A 
ATOM      5  C   UNL     1      40.109  21.846  18.541  0.00  0.00    +0.151 A 
ATOM      6  O   UNL     1      41.343  22.360  18.698  0.00  0.00    -0.175 OA
ATOM      7  C   UNL     1      42.171  21.404  19.138  0.00  0.00    -0.013 A 
ATOM      8  C   UNL     1      43.652  21.516  19.400  0.00  0.00    +0.127 C 
ATOM      9  C   UNL     1      44.128  20.312  20.221  0.00  0.00    +0.057 C 
ATOM     10  C   UNL     1      45.669  20.282  20.196  0.00  0.00    -0.018 C 
ATOM     11  C   UNL     1      46.138  20.159  18.745  0.00  0.00    +0.041 C 
ATOM     12  C   UNL     1      46.195  21.598  20.769  0.00  0.00    +0.166 C 
ATOM     15  C   UNL     1      47.718  21.551  20.875  0.00  0.00    -0.021 C 
ATOM     16  C   UNL     1      48.142  20.424  21.808  0.00  0.00    +0.030 C 
ATOM     17  C   UNL     1      47.625  19.067  21.335  0.00  0.00    -0.075 C 
ATOM     18  C   UNL     1      48.464  18.569  20.160  0.00  0.00    +0.027 C 
ATOM     19  C   UNL     1      47.849  18.078  22.505  0.00  0.00    +0.019 C 
ATOM     20  C   UNL     1      46.140  19.097  21.029  0.00  0.00    +0.173 C 
ATOM     23  C   UNL     1      45.680  17.805  20.344  0.00  0.00    -0.014 C 
ATOM     24  C   UNL     1      44.147  17.783  20.356  0.00  0.00    +0.023 C 
ATOM     25  C   UNL     1      43.564  19.009  19.659  0.00  0.00    -0.002 C 
ENDROOT
BRANCH  12  13
ATOM     13  O   UNL     1      45.629  21.842  22.056  0.00  0.00    -0.539 OA
ATOM     14  H   UNL     1      44.932  22.512  22.059  0.00  0.00    +0.368 HD
ENDBRANCH  12  13
BRANCH  20  21
ATOM     21  O   UNL     1      45.449  19.159  22.302  0.00  0.00    -0.543 OA
ATOM     22  H   UNL     1      45.202  18.294  22.658  0.00  0.00    +0.362 HD
ENDBRANCH  20  21
TORSDOF 2
ENDMDL
MODEL 2
REMARK VINA RESULT:      -6.0      2.873      6.596
REMARK  Name = ZINC95486306
REMARK  6 active torsions:
REMARK  status: ('A' for Active; 'I' for Inactive)
REMARK    1  A    between atoms: C1_1  and  C2_2
REMARK    2  A    between atoms: C12_16  and  O3_27
REMARK    3  A    between atoms: C13_17  and  C20_26
REMARK    4  A    between atoms: C14_18  and  O2_25
REMARK    5  A    between atoms: C17_22  and  C18_23
REMARK    6  A    between atoms: C17_22  and  C19_24
REMARK                            x       y       z     vdW  Elec       q    Type
REMARK                         _______ _______ _______ _____ _____    ______ ____
ROOT
ATOM      1  C   UNL     1      50.240  20.736  20.592  0.00  0.00    +0.030 C 
ATOM      2  C   UNL     1      49.667  20.844  19.180  0.00  0.00    +0.058 C 
ATOM      3  C   UNL     1      50.543  20.054  18.245  0.00  0.00    -0.174 A 
ATOM      4  C   UNL     1      51.801  20.404  17.720  0.00  0.00    -0.056 A 
ATOM      5  C   UNL     1      52.194  19.376  16.943  0.00  0.00    +0.151 A 
ATOM      6  O   UNL     1      51.239  18.427  16.977  0.00  0.00    -0.175 OA
ATOM      7  C   UNL     1      50.228  18.843  17.749  0.00  0.00    -0.013 A 
ATOM      8  C   UNL     1      48.928  18.131  18.028  0.00  0.00    +0.127 C 
ATOM      9  C   UNL     1      48.224  18.780  19.226  0.00  0.00    +0.057 C 
ATOM     10  C   UNL     1      46.776  18.255  19.285  0.00  0.00    -0.018 C 
ATOM     11  C   UNL     1      46.063  18.622  17.982  0.00  0.00    +0.041 C 
ATOM     12  C   UNL     1      46.810  16.732  19.409  0.00  0.00    +0.166 C 
ATOM     15  C   UNL     1      45.394  16.190  19.597  0.00  0.00    -0.021 C 
ATOM     16  C   UNL     1      44.782  16.756  20.871  0.00  0.00    +0.030 C 
ATOM     17  C   UNL     1      44.743  18.283  20.854  0.00  0.00    -0.075 C 
ATOM     18  C   UNL     1      43.607  18.767  19.954  0.00  0.00    +0.027 C 
ATOM     19  C   UNL     1      44.401  18.730  22.297  0.00  0.00    +0.019 C 
ATOM     20  C   UNL     1      46.086  18.885  20.487  0.00  0.00    +0.173 C 
ATOM     23  C   UNL     1      45.979  20.397  20.251  0.00  0.00    -0.014 C 
ATOM     24  C   UNL     1      47.401  20.967  20.198  0.00  0.00    +0.023 C 
ATOM     25  C   UNL     1      48.232  20.302  19.105  0.00  0.00    -0.002 C 
ENDROOT
BRANCH  12  13
ATOM     13  O   UNL     1      47.626  16.341  20.513  0.00  0.00    -0.539 OA
ATOM     14  H   UNL     1      47.128  16.084  21.300  0.00  0.00    +0.368 HD
ENDBRANCH  12  13
BRANCH  20  21
ATOM     21  O   UNL     1      46.956  18.705  21.631  0.00  0.00    -0.543 OA
ATOM     22  H   UNL     1      47.572  19.436  21.776  0.00  0.00    +0.362 HD
ENDBRANCH  20  21
TORSDOF 2
ENDMDL
MODEL 3
REMARK VINA RESULT:      -5.7      2.759      6.121
REMARK  Name = ZINC95486306
REMARK  6 active torsions:
REMARK  status: ('A' for Active; 'I' for Inactive)
REMARK    1  A    between atoms: C1_1  and  C2_2
REMARK    2  A    between atoms: C12_16  and  O3_27
REMARK    3  A    between atoms: C13_17  and  C20_26
REMARK    4  A    between atoms: C14_18  and  O2_25
REMARK    5  A    between atoms: C17_22  and  C18_23
REMARK    6  A    between atoms: C17_22  and  C19_24
REMARK                            x       y       z     vdW  Elec       q    Type
REMARK                         _______ _______ _______ _____ _____    ______ ____
ROOT
ATOM      1  C   UNL     1      48.734  17.469  17.130  0.00  0.00    +0.030 C 
ATOM      2  C   UNL     1      49.489  17.907  18.383  0.00  0.00    +0.058 C 
ATOM      3  C   UNL     1      50.414  19.036  18.016  0.00  0.00    -0.174 A 
ATOM      4  C   UNL     1      51.647  18.973  17.342  0.00  0.00    -0.056 A 
ATOM      5  C   UNL     1      52.094  20.240  17.237  0.00  0.00    +0.151 A 
ATOM      6  O   UNL     1      51.192  21.058  17.811  0.00  0.00    -0.175 OA
ATOM      7  C   UNL     1      50.182  20.330  18.302  0.00  0.00    -0.013 A 
ATOM      8  C   UNL     1      48.982  20.822  19.072  0.00  0.00    +0.127 C 
ATOM      9  C   UNL     1      47.913  19.724  19.128  0.00  0.00    +0.057 C 
ATOM     10  C   UNL     1      46.855  20.125  20.176  0.00  0.00    -0.018 C 
ATOM     11  C   UNL     1      47.540  20.276  21.537  0.00  0.00    +0.041 C 
ATOM     12  C   UNL     1      46.257  21.474  19.779  0.00  0.00    +0.166 C 
ATOM     15  C   UNL     1      45.117  21.840  20.727  0.00  0.00    -0.021 C 
ATOM     16  C   UNL     1      44.016  20.792  20.651  0.00  0.00    +0.030 C 
ATOM     17  C   UNL     1      44.532  19.396  20.994  0.00  0.00    -0.075 C 
ATOM     18  C   UNL     1      44.715  19.264  22.505  0.00  0.00    +0.027 C 
ATOM     19  C   UNL     1      43.420  18.401  20.582  0.00  0.00    +0.019 C 
ATOM     20  C   UNL     1      45.785  19.043  20.215  0.00  0.00    +0.173 C 
ATOM     23  C   UNL     1      46.420  17.746  20.730  0.00  0.00    -0.014 C 
ATOM     24  C   UNL     1      47.474  17.299  19.709  0.00  0.00    +0.023 C 
ATOM     25  C   UNL     1      48.532  18.376  19.489  0.00  0.00    -0.002 C 
ENDROOT
BRANCH  12  13
ATOM     13  O   UNL     1      45.772  21.428  18.437  0.00  0.00    -0.539 OA
ATOM     14  H   UNL     1      45.121  22.111  18.230  0.00  0.00    +0.368 HD
ENDBRANCH  12  13
BRANCH  20  21
ATOM     21  O   UNL     1      45.373  18.789  18.849  0.00  0.00    -0.543 OA
ATOM     22  H   UNL     1      45.717  17.963  18.482  0.00  0.00    +0.362 HD
ENDBRANCH  20  21
TORSDOF 2
ENDMDL
MODEL 4
REMARK VINA RESULT:      -5.7      5.883      8.162
REMARK  Name = ZINC95486306
REMARK  6 active torsions:
REMARK  status: ('A' for Active; 'I' for Inactive)
REMARK    1  A    between atoms: C1_1  and  C2_2
REMARK    2  A    between atoms: C12_16  and  O3_27
REMARK    3  A    between atoms: C13_17  and  C20_26
REMARK    4  A    between atoms: C14_18  and  O2_25
REMARK    5  A    between atoms: C17_22  and  C18_23
REMARK    6  A    between atoms: C17_22  and  C19_24
REMARK                            x       y       z     vdW  Elec       q    Type
REMARK                         _______ _______ _______ _____ _____    ______ ____
ROOT
ATOM      1  C   UNL     1      46.184  17.312  17.574  0.00  0.00    +0.030 C 
ATOM      2  C   UNL     1      46.896  16.658  18.757  0.00  0.00    +0.058 C 
ATOM      3  C   UNL     1      45.883  16.387  19.836  0.00  0.00    -0.174 A 
ATOM      4  C   UNL     1      45.302  17.297  20.739  0.00  0.00    -0.056 A 
ATOM      5  C   UNL     1      44.448  16.588  21.504  0.00  0.00    +0.151 A 
ATOM      6  O   UNL     1      44.485  15.303  21.105  0.00  0.00    -0.175 OA
ATOM      7  C   UNL     1      45.369  15.173  20.108  0.00  0.00    -0.013 A 
ATOM      8  C   UNL     1      45.774  13.907  19.395  0.00  0.00    +0.127 C 
ATOM      9  C   UNL     1      46.526  14.253  18.104  0.00  0.00    +0.057 C 
ATOM     10  C   UNL     1      47.200  12.972  17.573  0.00  0.00    -0.018 C 
ATOM     11  C   UNL     1      48.171  12.448  18.634  0.00  0.00    +0.041 C 
ATOM     12  C   UNL     1      46.124  11.914  17.331  0.00  0.00    +0.166 C 
ATOM     15  C   UNL     1      46.743  10.676  16.686  0.00  0.00    -0.021 C 
ATOM     16  C   UNL     1      47.360  11.040  15.343  0.00  0.00    +0.030 C 
ATOM     17  C   UNL     1      48.425  12.126  15.480  0.00  0.00    -0.075 C 
ATOM     18  C   UNL     1      49.713  11.527  16.043  0.00  0.00    +0.027 C 
ATOM     19  C   UNL     1      48.742  12.617  14.046  0.00  0.00    +0.019 C 
ATOM     20  C   UNL     1      47.929  13.315  16.280  0.00  0.00    +0.173 C 
ATOM     23  C   UNL     1      49.067  14.290  16.606  0.00  0.00    -0.014 C 
ATOM     24  C   UNL     1      48.442  15.588  17.127  0.00  0.00    +0.023 C 
ATOM     25  C   UNL     1      47.571  15.338  18.355  0.00  0.00    -0.002 C 
ENDROOT
BRANCH  12  13
ATOM     13  O   UNL     1      45.095  12.434  16.489  0.00  0.00    -0.539 OA
ATOM     14  H   UNL     1      44.965  13.389  16.570  0.00  0.00    +0.368 HD
ENDBRANCH  12  13
BRANCH  20  21
ATOM     21  O   UNL     1      46.998  14.033  15.434  0.00  0.00    -0.543 OA
ATOM     22  H   UNL     1      47.128  14.992  15.431  0.00  0.00    +0.362 HD
ENDBRANCH  20  21
TORSDOF 2
ENDMDL
MODEL 5
REMARK VINA RESULT:      -5.4      2.805      5.120
REMARK  Name = ZINC95486306
REMARK  6 active torsions:
REMARK  status: ('A' for Active; 'I' for Inactive)
REMARK    1  A    between atoms: C1_1  and  C2_2
REMARK    2  A    between atoms: C12_16  and  O3_27
REMARK    3  A    between atoms: C13_17  and  C20_26
REMARK    4  A    between atoms: C14_18  and  O2_25
REMARK    5  A    between atoms: C17_22  and  C18_23
REMARK    6  A    between atoms: C17_22  and  C19_24
REMARK                            x       y       z     vdW  Elec       q    Type
REMARK                         _______ _______ _______ _____ _____    ______ ____
ROOT
ATOM      1  C   UNL     1      45.058  15.222  20.573  0.00  0.00    +0.030 C 
ATOM      2  C   UNL     1      46.466  15.559  20.087  0.00  0.00    +0.058 C 
ATOM      3  C   UNL     1      46.574  15.183  18.633  0.00  0.00    -0.174 A 
ATOM      4  C   UNL     1      46.727  13.903  18.069  0.00  0.00    -0.056 A 
ATOM      5  C   UNL     1      46.765  14.073  16.733  0.00  0.00    +0.151 A 
ATOM      6  O   UNL     1      46.641  15.387  16.467  0.00  0.00    -0.175 OA
ATOM      7  C   UNL     1      46.545  16.066  17.617  0.00  0.00    -0.013 A 
ATOM      8  C   UNL     1      46.446  17.560  17.800  0.00  0.00    +0.127 C 
ATOM      9  C   UNL     1      45.999  17.881  19.231  0.00  0.00    +0.057 C 
ATOM     10  C   UNL     1      46.218  19.386  19.484  0.00  0.00    -0.018 C 
ATOM     11  C   UNL     1      47.703  19.708  19.303  0.00  0.00    +0.041 C 
ATOM     12  C   UNL     1      45.417  20.179  18.452  0.00  0.00    +0.166 C 
ATOM     15  C   UNL     1      45.510  21.674  18.753  0.00  0.00    -0.021 C 
ATOM     16  C   UNL     1      44.931  21.967  20.130  0.00  0.00    +0.030 C 
ATOM     17  C   UNL     1      45.647  21.183  21.228  0.00  0.00    -0.075 C 
ATOM     18  C   UNL     1      47.000  21.824  21.532  0.00  0.00    +0.027 C 
ATOM     19  C   UNL     1      44.781  21.323  22.505  0.00  0.00    +0.019 C 
ATOM     20  C   UNL     1      45.754  19.706  20.899  0.00  0.00    +0.173 C 
ATOM     23  C   UNL     1      46.666  18.973  21.890  0.00  0.00    -0.014 C 
ATOM     24  C   UNL     1      46.473  17.467  21.683  0.00  0.00    +0.023 C 
ATOM     25  C   UNL     1      46.782  17.053  20.247  0.00  0.00    -0.002 C 
ENDROOT
BRANCH  12  13
ATOM     13  O   UNL     1      44.049  19.770  18.462  0.00  0.00    -0.539 OA
ATOM     14  H   UNL     1      43.833  19.132  19.155  0.00  0.00    +0.368 HD
ENDBRANCH  12  13
BRANCH  20  21
ATOM     21  O   UNL     1      44.429  19.142  21.060  0.00  0.00    -0.543 OA
ATOM     22  H   UNL     1      43.811  19.380  20.355  0.00  0.00    +0.362 HD
ENDBRANCH  20  21
TORSDOF 2
ENDMDL
MODEL 6
REMARK VINA RESULT:      -5.3      3.562      5.628
REMARK  Name = ZINC95486306
REMARK  6 active torsions:
REMARK  status: ('A' for Active; 'I' for Inactive)
REMARK    1  A    between atoms: C1_1  and  C2_2
REMARK    2  A    between atoms: C12_16  and  O3_27
REMARK    3  A    between atoms: C13_17  and  C20_26
REMARK    4  A    between atoms: C14_18  and  O2_25
REMARK    5  A    between atoms: C17_22  and  C18_23
REMARK    6  A    between atoms: C17_22  and  C19_24
REMARK                            x       y       z     vdW  Elec       q    Type
REMARK                         _______ _______ _______ _____ _____    ______ ____
ROOT
ATOM      1  C   UNL     1      48.728  20.776  18.859  0.00  0.00    +0.030 C 
ATOM      2  C   UNL     1      47.772  20.126  19.858  0.00  0.00    +0.058 C 
ATOM      3  C   UNL     1      46.384  20.649  19.602  0.00  0.00    -0.174 A 
ATOM      4  C   UNL     1      45.841  21.899  19.955  0.00  0.00    -0.056 A 
ATOM      5  C   UNL     1      44.571  21.908  19.506  0.00  0.00    +0.151 A 
ATOM      6  O   UNL     1      44.325  20.731  18.900  0.00  0.00    -0.175 OA
ATOM      7  C   UNL     1      45.415  19.957  18.974  0.00  0.00    -0.013 A 
ATOM      8  C   UNL     1      45.576  18.541  18.480  0.00  0.00    +0.127 C 
ATOM      9  C   UNL     1      47.062  18.168  18.441  0.00  0.00    +0.057 C 
ATOM     10  C   UNL     1      47.178  16.642  18.250  0.00  0.00    -0.018 C 
ATOM     11  C   UNL     1      46.481  15.943  19.419  0.00  0.00    +0.041 C 
ATOM     12  C   UNL     1      46.466  16.254  16.955  0.00  0.00    +0.166 C 
ATOM     15  C   UNL     1      46.670  14.767  16.671  0.00  0.00    -0.021 C 
ATOM     16  C   UNL     1      48.153  14.465  16.506  0.00  0.00    +0.030 C 
ATOM     17  C   UNL     1      48.956  14.860  17.743  0.00  0.00    -0.075 C 
ATOM     18  C   UNL     1      48.749  13.828  18.851  0.00  0.00    +0.027 C 
ATOM     19  C   UNL     1      50.450  14.797  17.338  0.00  0.00    +0.019 C 
ATOM     20  C   UNL     1      48.655  16.277  18.192  0.00  0.00    +0.173 C 
ATOM     23  C   UNL     1      49.288  16.582  19.555  0.00  0.00    -0.014 C 
ATOM     24  C   UNL     1      49.208  18.096  19.784  0.00  0.00    +0.023 C 
ATOM     25  C   UNL     1      47.767  18.596  19.727  0.00  0.00    -0.002 C 
ENDROOT
BRANCH  12  13
ATOM     13  O   UNL     1      46.964  17.027  15.863  0.00  0.00    -0.539 OA
ATOM     14  H   UNL     1      47.876  16.821  15.617  0.00  0.00    +0.368 HD
ENDBRANCH  12  13
BRANCH  20  21
ATOM     21  O   UNL     1      49.285  17.164  17.235  0.00  0.00    -0.543 OA
ATOM     22  H   UNL     1      48.950  18.072  17.261  0.00  0.00    +0.362 HD
ENDBRANCH  20  21
TORSDOF 2
ENDMDL
MODEL 7
REMARK VINA RESULT:      -5.2      4.673      7.784
REMARK  Name = ZINC95486306
REMARK  6 active torsions:
REMARK  status: ('A' for Active; 'I' for Inactive)
REMARK    1  A    between atoms: C1_1  and  C2_2
REMARK    2  A    between atoms: C12_16  and  O3_27
REMARK    3  A    between atoms: C13_17  and  C20_26
REMARK    4  A    between atoms: C14_18  and  O2_25
REMARK    5  A    between atoms: C17_22  and  C18_23
REMARK    6  A    between atoms: C17_22  and  C19_24
REMARK                            x       y       z     vdW  Elec       q    Type
REMARK                         _______ _______ _______ _____ _____    ______ ____
ROOT
ATOM      1  C   UNL     1      51.452  19.213  16.301  0.00  0.00    +0.030 C 
ATOM      2  C   UNL     1      51.908  18.679  17.657  0.00  0.00    +0.058 C 
ATOM      3  C   UNL     1      51.900  19.812  18.647  0.00  0.00    -0.174 A 
ATOM      4  C   UNL     1      52.832  20.857  18.788  0.00  0.00    -0.056 A 
ATOM      5  C   UNL     1      52.393  21.630  19.801  0.00  0.00    +0.151 A 
ATOM      6  O   UNL     1      51.246  21.105  20.271  0.00  0.00    -0.175 OA
ATOM      7  C   UNL     1      50.954  19.992  19.588  0.00  0.00    -0.013 A 
ATOM      8  C   UNL     1      49.795  19.052  19.809  0.00  0.00    +0.127 C 
ATOM      9  C   UNL     1      49.638  18.124  18.599  0.00  0.00    +0.057 C 
ATOM     10  C   UNL     1      48.676  16.982  18.981  0.00  0.00    -0.018 C 
ATOM     11  C   UNL     1      49.263  16.217  20.169  0.00  0.00    +0.041 C 
ATOM     12  C   UNL     1      47.338  17.587  19.403  0.00  0.00    +0.166 C 
ATOM     15  C   UNL     1      46.322  16.478  19.667  0.00  0.00    -0.021 C 
ATOM     16  C   UNL     1      46.095  15.664  18.401  0.00  0.00    +0.030 C 
ATOM     17  C   UNL     1      47.392  15.050  17.878  0.00  0.00    -0.075 C 
ATOM     18  C   UNL     1      47.776  13.839  18.727  0.00  0.00    +0.027 C 
ATOM     19  C   UNL     1      47.089  14.526  16.452  0.00  0.00    +0.019 C 
ATOM     20  C   UNL     1      48.506  16.073  17.770  0.00  0.00    +0.173 C 
ATOM     23  C   UNL     1      49.854  15.408  17.466  0.00  0.00    -0.014 C 
ATOM     24  C   UNL     1      50.844  16.508  17.067  0.00  0.00    +0.023 C 
ATOM     25  C   UNL     1      50.988  17.558  18.166  0.00  0.00    -0.002 C 
ENDROOT
BRANCH  12  13
ATOM     13  O   UNL     1      46.845  18.462  18.389  0.00  0.00    -0.539 OA
ATOM     14  H   UNL     1      47.206  18.289  17.509  0.00  0.00    +0.368 HD
ENDBRANCH  12  13
BRANCH  20  21
ATOM     21  O   UNL     1      48.195  16.917  16.634  0.00  0.00    -0.543 OA
ATOM     22  H   UNL     1      47.808  17.771  16.873  0.00  0.00    +0.362 HD
ENDBRANCH  20  21
TORSDOF 2
ENDMDL
MODEL 8
REMARK VINA RESULT:      -5.1      4.023      6.060
REMARK  Name = ZINC95486306
REMARK  6 active torsions:
REMARK  status: ('A' for Active; 'I' for Inactive)
REMARK    1  A    between atoms: C1_1  and  C2_2
REMARK    2  A    between atoms: C12_16  and  O3_27
REMARK    3  A    between atoms: C13_17  and  C20_26
REMARK    4  A    between atoms: C14_18  and  O2_25
REMARK    5  A    between atoms: C17_22  and  C18_23
REMARK    6  A    between atoms: C17_22  and  C19_24
REMARK                            x       y       z     vdW  Elec       q    Type
REMARK                         _______ _______ _______ _____ _____    ______ ____
ROOT
ATOM      1  C   UNL     1      45.897  18.307  18.138  0.00  0.00    +0.030 C 
ATOM      2  C   UNL     1      46.166  18.548  19.622  0.00  0.00    +0.058 C 
ATOM      3  C   UNL     1      45.988  17.247  20.359  0.00  0.00    -0.174 A 
ATOM      4  C   UNL     1      44.790  16.603  20.719  0.00  0.00    -0.056 A 
ATOM      5  C   UNL     1      45.140  15.466  21.353  0.00  0.00    +0.151 A 
ATOM      6  O   UNL     1      46.484  15.395  21.388  0.00  0.00    -0.175 OA
ATOM      7  C   UNL     1      47.002  16.482  20.804  0.00  0.00    -0.013 A 
ATOM      8  C   UNL     1      48.459  16.848  20.666  0.00  0.00    +0.127 C 
ATOM      9  C   UNL     1      48.618  17.972  19.635  0.00  0.00    +0.057 C 
ATOM     10  C   UNL     1      50.046  18.541  19.749  0.00  0.00    -0.018 C 
ATOM     11  C   UNL     1      50.251  19.082  21.166  0.00  0.00    +0.041 C 
ATOM     12  C   UNL     1      51.046  17.410  19.509  0.00  0.00    +0.166 C 
ATOM     15  C   UNL     1      52.469  17.965  19.491  0.00  0.00    -0.021 C 
ATOM     16  C   UNL     1      52.620  18.978  18.365  0.00  0.00    +0.030 C 
ATOM     17  C   UNL     1      51.628  20.132  18.499  0.00  0.00    -0.075 C 
ATOM     18  C   UNL     1      52.093  21.097  19.589  0.00  0.00    +0.027 C 
ATOM     19  C   UNL     1      51.669  20.907  17.159  0.00  0.00    +0.019 C 
ATOM     20  C   UNL     1      50.208  19.642  18.710  0.00  0.00    +0.173 C 
ATOM     23  C   UNL     1      49.263  20.795  19.070  0.00  0.00    -0.014 C 
ATOM     24  C   UNL     1      47.825  20.279  18.957  0.00  0.00    +0.023 C 
ATOM     25  C   UNL     1      47.588  19.075  19.865  0.00  0.00    -0.002 C 
ENDROOT
BRANCH  12  13
ATOM     13  O   UNL     1      50.768  16.754  18.273  0.00  0.00    -0.539 OA
ATOM     14  H   UNL     1      50.356  17.323  17.608  0.00  0.00    +0.368 HD
ENDBRANCH  12  13
BRANCH  20  21
ATOM     21  O   UNL     1      49.752  19.113  17.441  0.00  0.00    -0.543 OA
ATOM     22  H   UNL     1      49.422  19.787  16.830  0.00  0.00    +0.362 HD
ENDBRANCH  20  21
TORSDOF 2
ENDMDL
MODEL 9
REMARK VINA RESULT:      -5.1      2.704      5.710
REMARK  Name = ZINC95486306
REMARK  6 active torsions:
REMARK  status: ('A' for Active; 'I' for Inactive)
REMARK    1  A    between atoms: C1_1  and  C2_2
REMARK    2  A    between atoms: C12_16  and  O3_27
REMARK    3  A    between atoms: C13_17  and  C20_26
REMARK    4  A    between atoms: C14_18  and  O2_25
REMARK    5  A    between atoms: C17_22  and  C18_23
REMARK    6  A    between atoms: C17_22  and  C19_24
REMARK                            x       y       z     vdW  Elec       q    Type
REMARK                         _______ _______ _______ _____ _____    ______ ____
ROOT
ATOM      1  C   UNL     1      49.613  17.082  19.335  0.00  0.00    +0.030 C 
ATOM      2  C   UNL     1      48.720  17.372  18.130  0.00  0.00    +0.058 C 
ATOM      3  C   UNL     1      47.963  16.120  17.781  0.00  0.00    -0.174 A 
ATOM      4  C   UNL     1      48.429  14.973  17.111  0.00  0.00    -0.056 A 
ATOM      5  C   UNL     1      47.390  14.118  17.043  0.00  0.00    +0.151 A 
ATOM      6  O   UNL     1      46.328  14.690  17.639  0.00  0.00    -0.175 OA
ATOM      7  C   UNL     1      46.665  15.912  18.070  0.00  0.00    -0.013 A 
ATOM      8  C   UNL     1      45.777  16.928  18.744  0.00  0.00    +0.127 C 
ATOM      9  C   UNL     1      46.636  18.027  19.384  0.00  0.00    +0.057 C 
ATOM     10  C   UNL     1      45.715  19.200  19.775  0.00  0.00    -0.018 C 
ATOM     11  C   UNL     1      45.023  19.727  18.516  0.00  0.00    +0.041 C 
ATOM     12  C   UNL     1      44.647  18.686  20.740  0.00  0.00    +0.166 C 
ATOM     15  C   UNL     1      43.796  19.849  21.246  0.00  0.00    -0.021 C 
ATOM     16  C   UNL     1      44.668  20.849  21.992  0.00  0.00    +0.030 C 
ATOM     17  C   UNL     1      45.794  21.390  21.114  0.00  0.00    -0.075 C 
ATOM     18  C   UNL     1      45.242  22.424  20.134  0.00  0.00    +0.027 C 
ATOM     19  C   UNL     1      46.770  22.136  22.058  0.00  0.00    +0.019 C 
ATOM     20  C   UNL     1      46.567  20.280  20.428  0.00  0.00    +0.173 C 
ATOM     23  C   UNL     1      47.539  20.836  19.380  0.00  0.00    -0.014 C 
ATOM     24  C   UNL     1      48.487  19.703  18.968  0.00  0.00    +0.023 C 
ATOM     25  C   UNL     1      47.721  18.502  18.420  0.00  0.00    -0.002 C 
ENDROOT
BRANCH  12  13
ATOM     13  O   UNL     1      45.256  18.017  21.845  0.00  0.00    -0.539 OA
ATOM     14  H   UNL     1      45.654  17.166  21.619  0.00  0.00    +0.368 HD
ENDBRANCH  12  13
BRANCH  20  21
ATOM     21  O   UNL     1      47.376  19.640  21.445  0.00  0.00    -0.543 OA
ATOM     22  H   UNL     1      47.962  18.949  21.104  0.00  0.00    +0.362 HD
ENDBRANCH  20  21
TORSDOF 2
ENDMDL
