MODEL 1
REMARK VINA RESULT:      -6.3      0.000      0.000
REMARK  Name = ZINC28969961
REMARK  10 active torsions:
REMARK  status: ('A' for Active; 'I' for Inactive)
REMARK    1  A    between atoms: C1_1  and  C2_2
REMARK    2  A    between atoms: C2_2  and  C3_4
REMARK    3  A    between atoms: C3_4  and  C4_5
REMARK    4  A    between atoms: C9_11  and  O3_15
REMARK    5  A    between atoms: C10_12  and  O2_13
REMARK    6  A    between atoms: O2_13  and  C11_14
REMARK    7  A    between atoms: O3_15  and  C12_16
REMARK    8  A    between atoms: C18_22  and  O5_30
REMARK    9  A    between atoms: C19_23  and  O4_29
REMARK   10  A    between atoms: N1_27  and  C23_28
REMARK                            x       y       z     vdW  Elec       q    Type
REMARK                         _______ _______ _______ _____ _____    ______ ____
ROOT
ATOM      4  C   UNL     1      46.225  18.515  19.577  0.00  0.00    +0.262 C 
ATOM      5  C   UNL     1      47.162  19.367  20.386  0.00  0.00    -0.093 A 
ATOM      6  C   UNL     1      46.795  20.677  20.709  0.00  0.00    -0.057 A 
ATOM      7  C   UNL     1      45.465  21.155  20.259  0.00  0.00    -0.089 A 
ATOM      8  C   UNL     1      45.154  22.520  20.286  0.00  0.00    +0.033 A 
ATOM      9  C   UNL     1      43.949  22.970  19.846  0.00  0.00    +0.017 A 
ATOM     10  C   UNL     1      42.999  22.062  19.346  0.00  0.00    -0.028 A 
ATOM     11  C   UNL     1      41.757  22.515  18.874  0.00  0.00    -0.006 A 
ATOM     12  C   UNL     1      40.843  21.619  18.401  0.00  0.00    +0.151 A 
ATOM     15  C   UNL     1      41.142  20.249  18.354  0.00  0.00    +0.080 A 
ATOM     18  C   UNL     1      42.343  19.780  18.800  0.00  0.00    -0.016 A 
ATOM     19  C   UNL     1      43.294  20.676  19.318  0.00  0.00    -0.038 A 
ATOM     20  C   UNL     1      44.540  20.219  19.803  0.00  0.00    +0.134 A 
ATOM     21  C   UNL     1      47.650  21.488  21.438  0.00  0.00    +0.065 A 
ATOM     22  C   UNL     1      48.874  20.996  21.857  0.00  0.00    -0.055 A 
ATOM     23  C   UNL     1      49.240  19.696  21.547  0.00  0.00    +0.111 A 
ATOM     26  C   UNL     1      48.383  18.880  20.812  0.00  0.00    +0.080 A 
ATOM     29  N   UNL     1      44.828  18.867  19.816  0.00  0.00    -0.494 N 
ATOM     30  C   UNL     1      44.336  18.231  21.050  0.00  0.00    +0.221 C 
ENDROOT
BRANCH  12  13
ATOM     13  O   UNL     1      39.626  22.057  17.986  0.00  0.00    -0.506 OA
ATOM     14  H   UNL     1      39.474  22.342  16.935  0.00  0.00    +0.441 HD
ENDBRANCH  12  13
BRANCH  15  16
ATOM     16  O   UNL     1      40.226  19.378  17.852  0.00  0.00    -0.520 OA
ATOM     17  H   UNL     1      39.492  19.721  17.108  0.00  0.00    +0.444 HD
ENDBRANCH  15  16
BRANCH  23  24
ATOM     24  O   UNL     1      50.443  19.217  21.966  0.00  0.00    -0.306 OA
ATOM     25  C   UNL     1      51.609  19.920  21.531  0.00  0.00    +0.241 C 
ENDBRANCH  23  24
BRANCH  26  27
ATOM     27  O   UNL     1      48.749  17.602  20.518  0.00  0.00    -0.322 OA
ATOM     28  C   UNL     1      49.702  17.425  19.468  0.00  0.00    +0.223 C 
ENDBRANCH  26  27
BRANCH   4   3
ATOM      3  C   UNL     1      46.542  18.690  18.088  0.00  0.00    +0.051 C 
BRANCH   3   2
ATOM      1  C   UNL     1      46.241  16.099  18.191  0.00  0.00    +0.054 C 
ATOM      2  C   UNL     1      46.656  17.336  17.437  0.00  0.00    +0.363 C 
ATOM     31  O   UNL     1      47.078  17.242  16.309  0.00  0.00    -0.443 OA
ENDBRANCH   3   2
ENDBRANCH   4   3
TORSDOF 6
ENDMDL
MODEL 2
REMARK VINA RESULT:      -6.0      2.037      4.008
REMARK  Name = ZINC28969961
REMARK  10 active torsions:
REMARK  status: ('A' for Active; 'I' for Inactive)
REMARK    1  A    between atoms: C1_1  and  C2_2
REMARK    2  A    between atoms: C2_2  and  C3_4
REMARK    3  A    between atoms: C3_4  and  C4_5
REMARK    4  A    between atoms: C9_11  and  O3_15
REMARK    5  A    between atoms: C10_12  and  O2_13
REMARK    6  A    between atoms: O2_13  and  C11_14
REMARK    7  A    between atoms: O3_15  and  C12_16
REMARK    8  A    between atoms: C18_22  and  O5_30
REMARK    9  A    between atoms: C19_23  and  O4_29
REMARK   10  A    between atoms: N1_27  and  C23_28
REMARK                            x       y       z     vdW  Elec       q    Type
REMARK                         _______ _______ _______ _____ _____    ______ ____
ROOT
ATOM      4  C   UNL     1      46.035  19.758  20.790  0.00  0.00    +0.262 C 
ATOM      5  C   UNL     1      46.060  18.340  21.285  0.00  0.00    -0.093 A 
ATOM      6  C   UNL     1      44.865  17.620  21.370  0.00  0.00    -0.057 A 
ATOM      7  C   UNL     1      43.618  18.292  20.930  0.00  0.00    -0.089 A 
ATOM      8  C   UNL     1      42.367  17.753  21.256  0.00  0.00    +0.033 A 
ATOM      9  C   UNL     1      41.219  18.380  20.884  0.00  0.00    +0.017 A 
ATOM     10  C   UNL     1      41.278  19.589  20.169  0.00  0.00    -0.028 A 
ATOM     11  C   UNL     1      40.101  20.254  19.792  0.00  0.00    -0.006 A 
ATOM     12  C   UNL     1      40.176  21.421  19.090  0.00  0.00    +0.151 A 
ATOM     15  C   UNL     1      41.420  21.984  18.766  0.00  0.00    +0.080 A 
ATOM     18  C   UNL     1      42.582  21.363  19.124  0.00  0.00    -0.016 A 
ATOM     19  C   UNL     1      42.536  20.146  19.824  0.00  0.00    -0.038 A 
ATOM     20  C   UNL     1      43.720  19.470  20.194  0.00  0.00    +0.134 A 
ATOM     21  C   UNL     1      44.860  16.317  21.841  0.00  0.00    +0.065 A 
ATOM     22  C   UNL     1      46.049  15.719  22.223  0.00  0.00    -0.055 A 
ATOM     23  C   UNL     1      47.238  16.424  22.133  0.00  0.00    +0.111 A 
ATOM     26  C   UNL     1      47.245  17.736  21.662  0.00  0.00    +0.080 A 
ATOM     29  N   UNL     1      44.954  19.981  19.834  0.00  0.00    -0.494 N 
ATOM     30  C   UNL     1      45.346  19.522  18.490  0.00  0.00    +0.221 C 
ENDROOT
BRANCH  12  13
ATOM     13  O   UNL     1      39.035  22.039  18.689  0.00  0.00    -0.506 OA
ATOM     14  H   UNL     1      38.243  22.262  19.420  0.00  0.00    +0.441 HD
ENDBRANCH  12  13
BRANCH  15  16
ATOM     16  O   UNL     1      41.470  23.163  18.091  0.00  0.00    -0.520 OA
ATOM     17  H   UNL     1      40.639  23.454  17.431  0.00  0.00    +0.444 HD
ENDBRANCH  15  16
BRANCH  23  24
ATOM     24  O   UNL     1      48.403  15.829  22.505  0.00  0.00    -0.306 OA
ATOM     25  C   UNL     1      48.780  14.642  21.804  0.00  0.00    +0.241 C 
ENDBRANCH  23  24
BRANCH  26  27
ATOM     27  O   UNL     1      48.419  18.418  21.571  0.00  0.00    -0.322 OA
ATOM     28  C   UNL     1      49.048  18.458  20.289  0.00  0.00    +0.223 C 
ENDBRANCH  26  27
BRANCH   4   3
ATOM      3  C   UNL     1      45.858  20.706  21.981  0.00  0.00    +0.051 C 
BRANCH   3   2
ATOM      1  C   UNL     1      45.040  23.031  21.124  0.00  0.00    +0.054 C 
ATOM      2  C   UNL     1      46.160  22.117  21.549  0.00  0.00    +0.363 C 
ATOM     31  O   UNL     1      47.300  22.517  21.545  0.00  0.00    -0.443 OA
ENDBRANCH   3   2
ENDBRANCH   4   3
TORSDOF 6
ENDMDL
MODEL 3
REMARK VINA RESULT:      -5.7      2.418      7.209
REMARK  Name = ZINC28969961
REMARK  10 active torsions:
REMARK  status: ('A' for Active; 'I' for Inactive)
REMARK    1  A    between atoms: C1_1  and  C2_2
REMARK    2  A    between atoms: C2_2  and  C3_4
REMARK    3  A    between atoms: C3_4  and  C4_5
REMARK    4  A    between atoms: C9_11  and  O3_15
REMARK    5  A    between atoms: C10_12  and  O2_13
REMARK    6  A    between atoms: O2_13  and  C11_14
REMARK    7  A    between atoms: O3_15  and  C12_16
REMARK    8  A    between atoms: C18_22  and  O5_30
REMARK    9  A    between atoms: C19_23  and  O4_29
REMARK   10  A    between atoms: N1_27  and  C23_28
REMARK                            x       y       z     vdW  Elec       q    Type
REMARK                         _______ _______ _______ _____ _____    ______ ____
ROOT
ATOM      4  C   UNL     1      46.122  17.717  19.768  0.00  0.00    +0.262 C 
ATOM      5  C   UNL     1      45.618  19.112  19.533  0.00  0.00    -0.093 A 
ATOM      6  C   UNL     1      46.524  20.124  19.198  0.00  0.00    -0.057 A 
ATOM      7  C   UNL     1      47.954  19.755  19.059  0.00  0.00    -0.089 A 
ATOM      8  C   UNL     1      48.943  20.745  19.017  0.00  0.00    +0.033 A 
ATOM      9  C   UNL     1      50.259  20.414  18.921  0.00  0.00    +0.017 A 
ATOM     10  C   UNL     1      50.641  19.063  18.870  0.00  0.00    -0.028 A 
ATOM     11  C   UNL     1      51.997  18.707  18.786  0.00  0.00    -0.006 A 
ATOM     12  C   UNL     1      52.351  17.391  18.727  0.00  0.00    +0.151 A 
ATOM     15  C   UNL     1      51.375  16.383  18.780  0.00  0.00    +0.080 A 
ATOM     18  C   UNL     1      50.050  16.698  18.868  0.00  0.00    -0.016 A 
ATOM     19  C   UNL     1      49.654  18.046  18.902  0.00  0.00    -0.038 A 
ATOM     20  C   UNL     1      48.289  18.405  18.976  0.00  0.00    +0.134 A 
ATOM     21  C   UNL     1      46.086  21.422  18.994  0.00  0.00    +0.065 A 
ATOM     22  C   UNL     1      44.740  21.721  19.115  0.00  0.00    -0.055 A 
ATOM     23  C   UNL     1      43.836  20.722  19.438  0.00  0.00    +0.111 A 
ATOM     26  C   UNL     1      44.275  19.416  19.646  0.00  0.00    +0.080 A 
ATOM     29  N   UNL     1      47.311  17.427  18.972  0.00  0.00    -0.494 N 
ATOM     30  C   UNL     1      46.937  17.056  17.597  0.00  0.00    +0.221 C 
ENDROOT
BRANCH  12  13
ATOM     13  O   UNL     1      53.660  17.051  18.602  0.00  0.00    -0.506 OA
ATOM     14  H   UNL     1      53.939  16.016  18.359  0.00  0.00    +0.441 HD
ENDBRANCH  12  13
BRANCH  15  16
ATOM     16  O   UNL     1      51.753  15.078  18.749  0.00  0.00    -0.520 OA
ATOM     17  H   UNL     1      51.723  14.519  17.802  0.00  0.00    +0.444 HD
ENDBRANCH  15  16
BRANCH  23  24
ATOM     24  O   UNL     1      42.513  21.021  19.550  0.00  0.00    -0.306 OA
ATOM     25  C   UNL     1      41.674  20.680  18.444  0.00  0.00    +0.241 C 
ENDBRANCH  23  24
BRANCH  26  27
ATOM     27  O   UNL     1      43.378  18.440  19.957  0.00  0.00    -0.322 OA
ATOM     28  C   UNL     1      42.915  18.390  21.308  0.00  0.00    +0.223 C 
ENDBRANCH  26  27
BRANCH   4   3
ATOM      3  C   UNL     1      46.456  17.545  21.254  0.00  0.00    +0.051 C 
BRANCH   3   2
ATOM      1  C   UNL     1      45.047  15.352  21.118  0.00  0.00    +0.054 C 
ATOM      2  C   UNL     1      46.233  16.110  21.656  0.00  0.00    +0.363 C 
ATOM     31  O   UNL     1      47.006  15.567  22.410  0.00  0.00    -0.443 OA
ENDBRANCH   3   2
ENDBRANCH   4   3
TORSDOF 6
ENDMDL
MODEL 4
REMARK VINA RESULT:      -5.7      2.276      2.997
REMARK  Name = ZINC28969961
REMARK  10 active torsions:
REMARK  status: ('A' for Active; 'I' for Inactive)
REMARK    1  A    between atoms: C1_1  and  C2_2
REMARK    2  A    between atoms: C2_2  and  C3_4
REMARK    3  A    between atoms: C3_4  and  C4_5
REMARK    4  A    between atoms: C9_11  and  O3_15
REMARK    5  A    between atoms: C10_12  and  O2_13
REMARK    6  A    between atoms: O2_13  and  C11_14
REMARK    7  A    between atoms: O3_15  and  C12_16
REMARK    8  A    between atoms: C18_22  and  O5_30
REMARK    9  A    between atoms: C19_23  and  O4_29
REMARK   10  A    between atoms: N1_27  and  C23_28
REMARK                            x       y       z     vdW  Elec       q    Type
REMARK                         _______ _______ _______ _____ _____    ______ ____
ROOT
ATOM      4  C   UNL     1      47.998  17.489  20.221  0.00  0.00    +0.262 C 
ATOM      5  C   UNL     1      48.861  18.584  19.661  0.00  0.00    -0.093 A 
ATOM      6  C   UNL     1      48.274  19.796  19.283  0.00  0.00    -0.057 A 
ATOM      7  C   UNL     1      46.813  19.952  19.486  0.00  0.00    -0.089 A 
ATOM      8  C   UNL     1      46.119  21.001  18.873  0.00  0.00    +0.033 A 
ATOM      9  C   UNL     1      44.774  21.134  19.029  0.00  0.00    +0.017 A 
ATOM     10  C   UNL     1      44.062  20.205  19.808  0.00  0.00    -0.028 A 
ATOM     11  C   UNL     1      42.672  20.322  19.965  0.00  0.00    -0.006 A 
ATOM     12  C   UNL     1      41.998  19.417  20.733  0.00  0.00    +0.151 A 
ATOM     15  C   UNL     1      42.675  18.352  21.346  0.00  0.00    +0.080 A 
ATOM     18  C   UNL     1      44.025  18.209  21.206  0.00  0.00    -0.016 A 
ATOM     19  C   UNL     1      44.750  19.141  20.444  0.00  0.00    -0.038 A 
ATOM     20  C   UNL     1      46.151  19.031  20.294  0.00  0.00    +0.134 A 
ATOM     21  C   UNL     1      49.046  20.814  18.747  0.00  0.00    +0.065 A 
ATOM     22  C   UNL     1      50.410  20.635  18.592  0.00  0.00    -0.055 A 
ATOM     23  C   UNL     1      50.998  19.440  18.973  0.00  0.00    +0.111 A 
ATOM     26  C   UNL     1      50.224  18.413  19.509  0.00  0.00    +0.080 A 
ATOM     29  N   UNL     1      46.842  18.020  20.937  0.00  0.00    -0.494 N 
ATOM     30  C   UNL     1      47.217  18.418  22.304  0.00  0.00    +0.221 C 
ENDROOT
BRANCH  12  13
ATOM     13  O   UNL     1      40.660  19.558  20.918  0.00  0.00    -0.506 OA
ATOM     14  H   UNL     1      40.028  19.935  20.100  0.00  0.00    +0.441 HD
ENDBRANCH  12  13
BRANCH  15  16
ATOM     16  O   UNL     1      41.978  17.447  22.082  0.00  0.00    -0.520 OA
ATOM     17  H   UNL     1      42.427  16.473  22.327  0.00  0.00    +0.444 HD
ENDBRANCH  15  16
BRANCH  23  24
ATOM     24  O   UNL     1      52.340  19.272  18.822  0.00  0.00    -0.306 OA
ATOM     25  C   UNL     1      53.058  20.326  18.177  0.00  0.00    +0.241 C 
ENDBRANCH  23  24
BRANCH  26  27
ATOM     27  O   UNL     1      50.812  17.245  19.886  0.00  0.00    -0.322 OA
ATOM     28  C   UNL     1      51.334  17.181  21.215  0.00  0.00    +0.223 C 
ENDBRANCH  26  27
BRANCH   4   3
ATOM      3  C   UNL     1      47.515  16.592  19.076  0.00  0.00    +0.051 C 
BRANCH   3   2
ATOM      1  C   UNL     1      45.516  14.986  19.563  0.00  0.00    +0.054 C 
ATOM      2  C   UNL     1      46.989  15.298  19.639  0.00  0.00    +0.363 C 
ATOM     31  O   UNL     1      47.748  14.509  20.150  0.00  0.00    -0.443 OA
ENDBRANCH   3   2
ENDBRANCH   4   3
TORSDOF 6
ENDMDL
MODEL 5
REMARK VINA RESULT:      -5.7      2.779      3.511
REMARK  Name = ZINC28969961
REMARK  10 active torsions:
REMARK  status: ('A' for Active; 'I' for Inactive)
REMARK    1  A    between atoms: C1_1  and  C2_2
REMARK    2  A    between atoms: C2_2  and  C3_4
REMARK    3  A    between atoms: C3_4  and  C4_5
REMARK    4  A    between atoms: C9_11  and  O3_15
REMARK    5  A    between atoms: C10_12  and  O2_13
REMARK    6  A    between atoms: O2_13  and  C11_14
REMARK    7  A    between atoms: O3_15  and  C12_16
REMARK    8  A    between atoms: C18_22  and  O5_30
REMARK    9  A    between atoms: C19_23  and  O4_29
REMARK   10  A    between atoms: N1_27  and  C23_28
REMARK                            x       y       z     vdW  Elec       q    Type
REMARK                         _______ _______ _______ _____ _____    ______ ____
ROOT
ATOM      4  C   UNL     1      47.967  17.314  18.810  0.00  0.00    +0.262 C 
ATOM      5  C   UNL     1      48.887  18.478  18.574  0.00  0.00    -0.093 A 
ATOM      6  C   UNL     1      48.492  19.759  18.972  0.00  0.00    -0.057 A 
ATOM      7  C   UNL     1      47.180  19.901  19.648  0.00  0.00    -0.089 A 
ATOM      8  C   UNL     1      46.595  21.163  19.808  0.00  0.00    +0.033 A 
ATOM      9  C   UNL     1      45.377  21.298  20.398  0.00  0.00    +0.017 A 
ATOM     10  C   UNL     1      44.685  20.162  20.850  0.00  0.00    -0.028 A 
ATOM     11  C   UNL     1      43.421  20.286  21.447  0.00  0.00    -0.006 A 
ATOM     12  C   UNL     1      42.766  19.173  21.889  0.00  0.00    +0.151 A 
ATOM     15  C   UNL     1      43.331  17.898  21.726  0.00  0.00    +0.080 A 
ATOM     18  C   UNL     1      44.555  17.746  21.144  0.00  0.00    -0.016 A 
ATOM     19  C   UNL     1      45.265  18.876  20.704  0.00  0.00    -0.038 A 
ATOM     20  C   UNL     1      46.542  18.752  20.112  0.00  0.00    +0.134 A 
ATOM     21  C   UNL     1      49.316  20.851  18.748  0.00  0.00    +0.065 A 
ATOM     22  C   UNL     1      50.542  20.673  18.132  0.00  0.00    -0.055 A 
ATOM     23  C   UNL     1      50.943  19.405  17.742  0.00  0.00    +0.111 A 
ATOM     26  C   UNL     1      50.116  18.306  17.964  0.00  0.00    +0.080 A 
ATOM     29  N   UNL     1      47.137  17.510  19.995  0.00  0.00    -0.494 N 
ATOM     30  C   UNL     1      47.885  17.162  21.216  0.00  0.00    +0.221 C 
ENDROOT
BRANCH  12  13
ATOM     13  O   UNL     1      41.563  19.301  22.506  0.00  0.00    -0.506 OA
ATOM     14  H   UNL     1      41.217  18.525  23.204  0.00  0.00    +0.441 HD
ENDBRANCH  12  13
BRANCH  15  16
ATOM     16  O   UNL     1      42.647  16.802  22.149  0.00  0.00    -0.520 OA
ATOM     17  H   UNL     1      42.608  16.556  23.220  0.00  0.00    +0.444 HD
ENDBRANCH  15  16
BRANCH  23  24
ATOM     24  O   UNL     1      52.152  19.236  17.142  0.00  0.00    -0.306 OA
ATOM     25  C   UNL     1      52.274  19.686  15.790  0.00  0.00    +0.241 C 
ENDBRANCH  23  24
BRANCH  26  27
ATOM     27  O   UNL     1      50.521  17.064  17.583  0.00  0.00    -0.322 OA
ATOM     28  C   UNL     1      51.266  16.304  18.537  0.00  0.00    +0.223 C 
ENDBRANCH  26  27
BRANCH   4   3
ATOM      3  C   UNL     1      47.064  17.129  17.586  0.00  0.00    +0.051 C 
BRANCH   3   2
ATOM      1  C   UNL     1      46.149  14.874  18.530  0.00  0.00    +0.054 C 
ATOM      2  C   UNL     1      46.761  15.664  17.403  0.00  0.00    +0.363 C 
ATOM     31  O   UNL     1      47.009  15.124  16.350  0.00  0.00    -0.443 OA
ENDBRANCH   3   2
ENDBRANCH   4   3
TORSDOF 6
ENDMDL
MODEL 6
REMARK VINA RESULT:      -5.5      2.508      4.717
REMARK  Name = ZINC28969961
REMARK  10 active torsions:
REMARK  status: ('A' for Active; 'I' for Inactive)
REMARK    1  A    between atoms: C1_1  and  C2_2
REMARK    2  A    between atoms: C2_2  and  C3_4
REMARK    3  A    between atoms: C3_4  and  C4_5
REMARK    4  A    between atoms: C9_11  and  O3_15
REMARK    5  A    between atoms: C10_12  and  O2_13
REMARK    6  A    between atoms: O2_13  and  C11_14
REMARK    7  A    between atoms: O3_15  and  C12_16
REMARK    8  A    between atoms: C18_22  and  O5_30
REMARK    9  A    between atoms: C19_23  and  O4_29
REMARK   10  A    between atoms: N1_27  and  C23_28
REMARK                            x       y       z     vdW  Elec       q    Type
REMARK                         _______ _______ _______ _____ _____    ______ ____
ROOT
ATOM      4  C   UNL     1      47.902  18.227  19.341  0.00  0.00    +0.262 C 
ATOM      5  C   UNL     1      48.414  16.839  19.603  0.00  0.00    -0.093 A 
ATOM      6  C   UNL     1      47.606  15.927  20.290  0.00  0.00    -0.057 A 
ATOM      7  C   UNL     1      46.253  16.373  20.702  0.00  0.00    -0.089 A 
ATOM      8  C   UNL     1      45.513  15.633  21.632  0.00  0.00    +0.033 A 
ATOM      9  C   UNL     1      44.285  16.051  22.039  0.00  0.00    +0.017 A 
ATOM     10  C   UNL     1      43.745  17.245  21.531  0.00  0.00    -0.028 A 
ATOM     11  C   UNL     1      42.485  17.696  21.954  0.00  0.00    -0.006 A 
ATOM     12  C   UNL     1      41.971  18.852  21.443  0.00  0.00    +0.151 A 
ATOM     15  C   UNL     1      42.703  19.614  20.519  0.00  0.00    +0.080 A 
ATOM     18  C   UNL     1      43.933  19.205  20.094  0.00  0.00    -0.016 A 
ATOM     19  C   UNL     1      44.476  18.004  20.582  0.00  0.00    -0.038 A 
ATOM     20  C   UNL     1      45.740  17.544  20.149  0.00  0.00    +0.134 A 
ATOM     21  C   UNL     1      48.063  14.647  20.560  0.00  0.00    +0.065 A 
ATOM     22  C   UNL     1      49.326  14.264  20.140  0.00  0.00    -0.055 A 
ATOM     23  C   UNL     1      50.127  15.161  19.452  0.00  0.00    +0.111 A 
ATOM     26  C   UNL     1      49.671  16.449  19.182  0.00  0.00    +0.080 A 
ATOM     29  N   UNL     1      46.449  18.253  19.197  0.00  0.00    -0.494 N 
ATOM     30  C   UNL     1      46.056  17.854  17.835  0.00  0.00    +0.221 C 
ENDROOT
BRANCH  12  13
ATOM     13  O   UNL     1      40.733  19.262  21.822  0.00  0.00    -0.506 OA
ATOM     14  H   UNL     1      39.876  19.118  21.148  0.00  0.00    +0.441 HD
ENDBRANCH  12  13
BRANCH  15  16
ATOM     16  O   UNL     1      42.183  20.778  20.046  0.00  0.00    -0.520 OA
ATOM     17  H   UNL     1      41.171  21.089  20.345  0.00  0.00    +0.444 HD
ENDBRANCH  15  16
BRANCH  23  24
ATOM     24  O   UNL     1      51.365  14.777  19.038  0.00  0.00    -0.306 OA
ATOM     25  C   UNL     1      51.428  13.869  17.936  0.00  0.00    +0.241 C 
ENDBRANCH  23  24
BRANCH  26  27
ATOM     27  O   UNL     1      50.463  17.320  18.499  0.00  0.00    -0.322 OA
ATOM     28  C   UNL     1      50.308  17.363  17.080  0.00  0.00    +0.223 C 
ENDBRANCH  26  27
BRANCH   4   3
ATOM      3  C   UNL     1      48.310  19.143  20.500  0.00  0.00    +0.051 C 
BRANCH   3   2
ATOM      1  C   UNL     1      49.528  20.802  18.895  0.00  0.00    +0.054 C 
ATOM      2  C   UNL     1      48.520  20.543  19.985  0.00  0.00    +0.363 C 
ATOM     31  O   UNL     1      47.878  21.458  20.444  0.00  0.00    -0.443 OA
ENDBRANCH   3   2
ENDBRANCH   4   3
TORSDOF 6
ENDMDL
MODEL 7
REMARK VINA RESULT:      -5.4      2.981      7.607
REMARK  Name = ZINC28969961
REMARK  10 active torsions:
REMARK  status: ('A' for Active; 'I' for Inactive)
REMARK    1  A    between atoms: C1_1  and  C2_2
REMARK    2  A    between atoms: C2_2  and  C3_4
REMARK    3  A    between atoms: C3_4  and  C4_5
REMARK    4  A    between atoms: C9_11  and  O3_15
REMARK    5  A    between atoms: C10_12  and  O2_13
REMARK    6  A    between atoms: O2_13  and  C11_14
REMARK    7  A    between atoms: O3_15  and  C12_16
REMARK    8  A    between atoms: C18_22  and  O5_30
REMARK    9  A    between atoms: C19_23  and  O4_29
REMARK   10  A    between atoms: N1_27  and  C23_28
REMARK                            x       y       z     vdW  Elec       q    Type
REMARK                         _______ _______ _______ _____ _____    ______ ____
ROOT
ATOM      4  C   UNL     1      47.372  17.562  19.550  0.00  0.00    +0.262 C 
ATOM      5  C   UNL     1      47.618  16.440  18.583  0.00  0.00    -0.093 A 
ATOM      6  C   UNL     1      48.816  16.404  17.861  0.00  0.00    -0.057 A 
ATOM      7  C   UNL     1      49.810  17.474  18.115  0.00  0.00    -0.089 A 
ATOM      8  C   UNL     1      50.883  17.670  17.237  0.00  0.00    +0.033 A 
ATOM      9  C   UNL     1      51.782  18.670  17.445  0.00  0.00    +0.017 A 
ATOM     10  C   UNL     1      51.636  19.528  18.549  0.00  0.00    -0.028 A 
ATOM     11  C   UNL     1      52.548  20.572  18.767  0.00  0.00    -0.006 A 
ATOM     12  C   UNL     1      52.397  21.390  19.848  0.00  0.00    +0.151 A 
ATOM     15  C   UNL     1      51.321  21.217  20.733  0.00  0.00    +0.080 A 
ATOM     18  C   UNL     1      50.415  20.214  20.543  0.00  0.00    -0.016 A 
ATOM     19  C   UNL     1      50.560  19.339  19.453  0.00  0.00    -0.038 A 
ATOM     20  C   UNL     1      49.649  18.281  19.239  0.00  0.00    +0.134 A 
ATOM     21  C   UNL     1      49.057  15.388  16.950  0.00  0.00    +0.065 A 
ATOM     22  C   UNL     1      48.111  14.397  16.757  0.00  0.00    -0.055 A 
ATOM     23  C   UNL     1      46.927  14.422  17.476  0.00  0.00    +0.111 A 
ATOM     26  C   UNL     1      46.680  15.443  18.391  0.00  0.00    +0.080 A 
ATOM     29  N   UNL     1      48.616  18.062  20.131  0.00  0.00    -0.494 N 
ATOM     30  C   UNL     1      49.050  17.201  21.246  0.00  0.00    +0.221 C 
ENDROOT
BRANCH  12  13
ATOM     13  O   UNL     1      53.305  22.372  20.080  0.00  0.00    -0.506 OA
ATOM     14  H   UNL     1      53.856  22.821  19.241  0.00  0.00    +0.441 HD
ENDBRANCH  12  13
BRANCH  15  16
ATOM     16  O   UNL     1      51.175  22.062  21.788  0.00  0.00    -0.520 OA
ATOM     17  H   UNL     1      50.252  22.042  22.386  0.00  0.00    +0.444 HD
ENDBRANCH  15  16
BRANCH  23  24
ATOM     24  O   UNL     1      46.003  13.442  17.285  0.00  0.00    -0.306 OA
ATOM     25  C   UNL     1      46.423  12.097  17.529  0.00  0.00    +0.241 C 
ENDBRANCH  23  24
BRANCH  26  27
ATOM     27  O   UNL     1      45.516  15.455  19.097  0.00  0.00    -0.322 OA
ATOM     28  C   UNL     1      45.488  14.709  20.315  0.00  0.00    +0.223 C 
ENDBRANCH  26  27
BRANCH   4   3
ATOM      3  C   UNL     1      46.660  18.708  18.824  0.00  0.00    +0.051 C 
BRANCH   3   2
ATOM      1  C   UNL     1      44.263  19.736  18.715  0.00  0.00    +0.054 C 
ATOM      2  C   UNL     1      45.309  18.936  19.449  0.00  0.00    +0.363 C 
ATOM     31  O   UNL     1      45.062  18.477  20.539  0.00  0.00    -0.443 OA
ENDBRANCH   3   2
ENDBRANCH   4   3
TORSDOF 6
ENDMDL
MODEL 8
REMARK VINA RESULT:      -5.3      2.713      7.392
REMARK  Name = ZINC28969961
REMARK  10 active torsions:
REMARK  status: ('A' for Active; 'I' for Inactive)
REMARK    1  A    between atoms: C1_1  and  C2_2
REMARK    2  A    between atoms: C2_2  and  C3_4
REMARK    3  A    between atoms: C3_4  and  C4_5
REMARK    4  A    between atoms: C9_11  and  O3_15
REMARK    5  A    between atoms: C10_12  and  O2_13
REMARK    6  A    between atoms: O2_13  and  C11_14
REMARK    7  A    between atoms: O3_15  and  C12_16
REMARK    8  A    between atoms: C18_22  and  O5_30
REMARK    9  A    between atoms: C19_23  and  O4_29
REMARK   10  A    between atoms: N1_27  and  C23_28
REMARK                            x       y       z     vdW  Elec       q    Type
REMARK                         _______ _______ _______ _____ _____    ______ ____
ROOT
ATOM      4  C   UNL     1      48.564  20.143  19.941  0.00  0.00    +0.262 C 
ATOM      5  C   UNL     1      47.100  20.306  19.647  0.00  0.00    -0.093 A 
ATOM      6  C   UNL     1      46.448  19.359  18.852  0.00  0.00    -0.057 A 
ATOM      7  C   UNL     1      47.240  18.206  18.358  0.00  0.00    -0.089 A 
ATOM      8  C   UNL     1      46.744  17.389  17.335  0.00  0.00    +0.033 A 
ATOM      9  C   UNL     1      47.476  16.348  16.855  0.00  0.00    +0.017 A 
ATOM     10  C   UNL     1      48.753  16.086  17.382  0.00  0.00    -0.028 A 
ATOM     11  C   UNL     1      49.526  15.024  16.885  0.00  0.00    -0.006 A 
ATOM     12  C   UNL     1      50.759  14.778  17.414  0.00  0.00    +0.151 A 
ATOM     15  C   UNL     1      51.279  15.593  18.432  0.00  0.00    +0.080 A 
ATOM     18  C   UNL     1      50.553  16.636  18.930  0.00  0.00    -0.016 A 
ATOM     19  C   UNL     1      49.269  16.898  18.424  0.00  0.00    -0.038 A 
ATOM     20  C   UNL     1      48.486  17.959  18.931  0.00  0.00    +0.134 A 
ATOM     21  C   UNL     1      45.103  19.498  18.551  0.00  0.00    +0.065 A 
ATOM     22  C   UNL     1      44.395  20.579  19.048  0.00  0.00    -0.055 A 
ATOM     23  C   UNL     1      45.033  21.517  19.844  0.00  0.00    +0.111 A 
ATOM     26  C   UNL     1      46.387  21.380  20.145  0.00  0.00    +0.080 A 
ATOM     29  N   UNL     1      48.959  18.737  19.971  0.00  0.00    -0.494 N 
ATOM     30  C   UNL     1      48.633  18.135  21.275  0.00  0.00    +0.221 C 
ENDROOT
BRANCH  12  13
ATOM     13  O   UNL     1      51.486  13.724  16.962  0.00  0.00    -0.506 OA
ATOM     14  H   UNL     1      52.252  13.266  17.605  0.00  0.00    +0.441 HD
ENDBRANCH  12  13
BRANCH  15  16
ATOM     16  O   UNL     1      52.522  15.345  18.923  0.00  0.00    -0.520 OA
ATOM     17  H   UNL     1      53.333  15.046  18.243  0.00  0.00    +0.444 HD
ENDBRANCH  15  16
BRANCH  23  24
ATOM     24  O   UNL     1      44.331  22.574  20.333  0.00  0.00    -0.306 OA
ATOM     25  C   UNL     1      43.250  23.062  19.535  0.00  0.00    +0.241 C 
ENDBRANCH  23  24
BRANCH  26  27
ATOM     27  O   UNL     1      47.003  22.304  20.933  0.00  0.00    -0.322 OA
ATOM     28  C   UNL     1      46.918  22.111  22.346  0.00  0.00    +0.223 C 
ENDBRANCH  26  27
BRANCH   4   3
ATOM      3  C   UNL     1      49.379  20.872  18.868  0.00  0.00    +0.051 C 
BRANCH   3   2
ATOM      1  C   UNL     1      51.829  20.290  18.183  0.00  0.00    +0.054 C 
ATOM      2  C   UNL     1      50.844  20.791  19.208  0.00  0.00    +0.363 C 
ATOM     31  O   UNL     1      51.230  21.128  20.302  0.00  0.00    -0.443 OA
ENDBRANCH   3   2
ENDBRANCH   4   3
TORSDOF 6
ENDMDL
MODEL 9
REMARK VINA RESULT:      -5.3      2.943      5.305
REMARK  Name = ZINC28969961
REMARK  10 active torsions:
REMARK  status: ('A' for Active; 'I' for Inactive)
REMARK    1  A    between atoms: C1_1  and  C2_2
REMARK    2  A    between atoms: C2_2  and  C3_4
REMARK    3  A    between atoms: C3_4  and  C4_5
REMARK    4  A    between atoms: C9_11  and  O3_15
REMARK    5  A    between atoms: C10_12  and  O2_13
REMARK    6  A    between atoms: O2_13  and  C11_14
REMARK    7  A    between atoms: O3_15  and  C12_16
REMARK    8  A    between atoms: C18_22  and  O5_30
REMARK    9  A    between atoms: C19_23  and  O4_29
REMARK   10  A    between atoms: N1_27  and  C23_28
REMARK                            x       y       z     vdW  Elec       q    Type
REMARK                         _______ _______ _______ _____ _____    ______ ____
ROOT
ATOM      4  C   UNL     1      48.829  17.283  18.012  0.00  0.00    +0.262 C 
ATOM      5  C   UNL     1      49.049  15.831  18.325  0.00  0.00    -0.093 A 
ATOM      6  C   UNL     1      48.096  15.137  19.078  0.00  0.00    -0.057 A 
ATOM      7  C   UNL     1      46.884  15.874  19.509  0.00  0.00    -0.089 A 
ATOM      8  C   UNL     1      46.043  15.344  20.496  0.00  0.00    +0.033 A 
ATOM      9  C   UNL     1      44.946  16.028  20.919  0.00  0.00    +0.017 A 
ATOM     10  C   UNL     1      44.648  17.287  20.370  0.00  0.00    -0.028 A 
ATOM     11  C   UNL     1      43.527  18.010  20.809  0.00  0.00    -0.006 A 
ATOM     12  C   UNL     1      43.247  19.227  20.259  0.00  0.00    +0.151 A 
ATOM     15  C   UNL     1      44.085  19.780  19.278  0.00  0.00    +0.080 A 
ATOM     18  C   UNL     1      45.185  19.104  18.836  0.00  0.00    -0.016 A 
ATOM     19  C   UNL     1      45.483  17.836  19.365  0.00  0.00    -0.038 A 
ATOM     20  C   UNL     1      46.605  17.103  18.916  0.00  0.00    +0.134 A 
ATOM     21  C   UNL     1      48.286  13.802  19.396  0.00  0.00    +0.065 A 
ATOM     22  C   UNL     1      49.423  13.145  18.957  0.00  0.00    -0.055 A 
ATOM     23  C   UNL     1      50.366  13.824  18.203  0.00  0.00    +0.111 A 
ATOM     26  C   UNL     1      50.179  15.167  17.885  0.00  0.00    +0.080 A 
ATOM     29  N   UNL     1      47.409  17.608  17.911  0.00  0.00    -0.494 N 
ATOM     30  C   UNL     1      46.888  17.246  16.582  0.00  0.00    +0.221 C 
ENDROOT
BRANCH  12  13
ATOM     13  O   UNL     1      42.138  19.904  20.654  0.00  0.00    -0.506 OA
ATOM     14  H   UNL     1      41.835  19.894  21.712  0.00  0.00    +0.441 HD
ENDBRANCH  12  13
BRANCH  15  16
ATOM     16  O   UNL     1      43.801  21.007  18.766  0.00  0.00    -0.520 OA
ATOM     17  H   UNL     1      44.441  21.437  17.980  0.00  0.00    +0.444 HD
ENDBRANCH  15  16
BRANCH  23  24
ATOM     24  O   UNL     1      51.479  13.172  17.771  0.00  0.00    -0.306 OA
ATOM     25  C   UNL     1      52.415  12.753  18.767  0.00  0.00    +0.241 C 
ENDBRANCH  23  24
BRANCH  26  27
ATOM     27  O   UNL     1      51.109  15.824  17.138  0.00  0.00    -0.322 OA
ATOM     28  C   UNL     1      52.235  16.364  17.832  0.00  0.00    +0.223 C 
ENDBRANCH  26  27
BRANCH   4   3
ATOM      3  C   UNL     1      49.465  18.139  19.113  0.00  0.00    +0.051 C 
BRANCH   3   2
ATOM      1  C   UNL     1      49.172  20.731  19.066  0.00  0.00    +0.054 C 
ATOM      2  C   UNL     1      49.841  19.484  18.550  0.00  0.00    +0.363 C 
ATOM     31  O   UNL     1      50.681  19.563  17.684  0.00  0.00    -0.443 OA
ENDBRANCH   3   2
ENDBRANCH   4   3
TORSDOF 6
ENDMDL
