MODEL 1
REMARK VINA RESULT:      -6.7      0.000      0.000
REMARK  Name = ZINC95485997
REMARK  17 active torsions:
REMARK  status: ('A' for Active; 'I' for Inactive)
REMARK    1  A    between atoms: C1_1  and  C2_2
REMARK    2  A    between atoms: C2_2  and  O2_4
REMARK    3  A    between atoms: O2_4  and  C3_5
REMARK    4  A    between atoms: C5_9  and  O6_42
REMARK    5  A    between atoms: C7_12  and  C28_37
REMARK    6  A    between atoms: C8_13  and  O3_15
REMARK    7  A    between atoms: O3_15  and  C9_16
REMARK    8  A    between atoms: C9_16  and  C10_17
REMARK    9  A    between atoms: C17_24  and  C21_30
REMARK   10  A    between atoms: C19_27  and  C20_28
REMARK   11  A    between atoms: C19_27  and  O4_29
REMARK   12  A    between atoms: C21_30  and  C22_31
REMARK   13  A    between atoms: C29_39  and  C30_40
REMARK   14  A    between atoms: C29_39  and  C31_41
REMARK   15  A    between atoms: O6_42  and  C32_43
REMARK   16  A    between atoms: C35_47  and  C38_52
REMARK   17  A    between atoms: N1_50  and  C37_51
REMARK                            x       y       z     vdW  Elec       q    Type
REMARK                         _______ _______ _______ _____ _____    ______ ____
ROOT
ATOM      4  C   UNL     1      50.532  17.471  17.811  0.00  0.00    +0.166 C 
ATOM      5  C   UNL     1      51.113  16.153  18.316  0.00  0.00    -0.032 C 
ATOM      6  C   UNL     1      49.920  15.137  18.259  0.00  0.00    +0.142 C 
ATOM     19  C   UNL     1      49.105  15.664  19.456  0.00  0.00    +0.164 C 
ATOM     20  O   UNL     1      50.073  16.115  20.438  0.00  0.00    -0.325 OA
ATOM     21  C   UNL     1      48.338  16.906  19.010  0.00  0.00    -0.043 C 
ATOM     22  C   UNL     1      47.427  16.655  17.804  0.00  0.00    +0.046 C 
ATOM     23  C   UNL     1      47.519  17.454  20.177  0.00  0.00    +0.061 C 
ATOM     24  C   UNL     1      46.662  16.428  20.886  0.00  0.00    -0.004 C 
ATOM     32  C   UNL     1      47.358  15.121  21.192  0.00  0.00    +0.010 C 
ATOM     33  C   UNL     1      48.252  14.587  20.083  0.00  0.00    +0.161 C 
ATOM     36  C   UNL     1      47.438  13.802  19.061  0.00  0.00    +0.022 C 
ATOM     37  C   UNL     1      51.371  16.181  19.835  0.00  0.00    +0.131 C 
ATOM     38  C   UNL     1      52.139  17.420  20.282  0.00  0.00    +0.051 C 
ATOM     39  C   UNL     1      52.189  14.947  20.254  0.00  0.00    +0.026 C 
ATOM     40  C   UNL     1      49.348  17.992  18.595  0.00  0.00    +0.149 C 
ENDROOT
BRANCH  33  34
ATOM     34  O   UNL     1      49.155  13.641  20.711  0.00  0.00    -0.538 OA
ATOM     35  H   UNL     1      49.081  13.606  21.674  0.00  0.00    +0.364 HD
ENDBRANCH  33  34
BRANCH   4   3
ATOM      3  O   UNL     1      51.546  18.476  17.705  0.00  0.00    -0.332 OA
BRANCH   3   2
ATOM      1  C   UNL     1      51.747  20.516  16.329  0.00  0.00    +0.156 C 
ATOM      2  C   UNL     1      51.744  19.018  16.493  0.00  0.00    +0.450 C 
ATOM     49  O   UNL     1      51.919  18.305  15.534  0.00  0.00    -0.508 OA
ENDBRANCH   3   2
ENDBRANCH   4   3
BRANCH   6   7
ATOM      7  O   UNL     1      50.369  13.791  18.414  0.00  0.00    -0.321 OA
BRANCH   7   8
ATOM      8  C   UNL     1      50.257  13.000  17.230  0.00  0.00    +0.374 C 
ATOM      9  C   UNL     1      49.744  13.873  16.087  0.00  0.00    +0.091 C 
ATOM     10  C   UNL     1      49.815  13.115  14.787  0.00  0.00    +0.043 C 
ATOM     11  C   UNL     1      50.831  12.250  14.574  0.00  0.00    -0.202 C 
ATOM     15  C   UNL     1      51.848  12.065  15.633  0.00  0.00    +0.558 C 
ATOM     16  O   UNL     1      52.930  11.579  15.364  0.00  0.00    -0.496 OA
ATOM     17  N   UNL     1      51.567  12.444  16.893  0.00  0.00    -0.639 N 
ATOM     18  C   UNL     1      52.582  12.293  17.938  0.00  0.00    +0.264 C 
BRANCH  11  12
ATOM     12  C   UNL     1      50.923  11.500  13.309  0.00  0.00    +0.528 C 
ATOM     13  O   UNL     1      50.909  10.277  13.320  0.00  0.00    -0.662 OA
ATOM     14  O   UNL     1      51.014  12.101  12.248  0.00  0.00    -0.691 OA
ENDBRANCH  11  12
ENDBRANCH   7   8
ENDBRANCH   6   7
BRANCH  24  25
ATOM     25  C   UNL     1      45.320  16.211  20.190  0.00  0.00    +0.065 C 
BRANCH  25  26
ATOM     26  C   UNL     1      44.337  17.255  20.654  0.00  0.00    -0.073 A 
ATOM     27  C   UNL     1      43.961  18.277  19.803  0.00  0.00    +0.003 A 
ATOM     28  C   UNL     1      43.059  19.234  20.228  0.00  0.00    +0.004 A 
ATOM     29  C   UNL     1      42.534  19.170  21.505  0.00  0.00    -0.008 A 
ATOM     30  C   UNL     1      42.910  18.147  22.356  0.00  0.00    +0.000 A 
ATOM     31  C   UNL     1      43.808  17.188  21.929  0.00  0.00    +0.000 A 
ENDBRANCH  25  26
ENDBRANCH  24  25
BRANCH  40  41
ATOM     41  O   UNL     1      49.745  18.774  19.712  0.00  0.00    -0.330 OA
BRANCH  41  42
ATOM     42  C   UNL     1      49.690  20.184  19.485  0.00  0.00    +0.202 C 
BRANCH  42  43
ATOM     43  C   UNL     1      48.302  20.688  19.784  0.00  0.00    -0.084 A 
ATOM     44  C   UNL     1      47.968  21.073  21.069  0.00  0.00    +0.023 A 
ATOM     45  C   UNL     1      46.694  21.535  21.344  0.00  0.00    -0.002 A 
ATOM     46  C   UNL     1      45.755  21.612  20.333  0.00  0.00    +0.006 A 
ATOM     47  C   UNL     1      46.088  21.228  19.048  0.00  0.00    +0.000 A 
ATOM     48  C   UNL     1      47.363  20.770  18.772  0.00  0.00    +0.029 A 
ENDBRANCH  42  43
ENDBRANCH  41  42
ENDBRANCH  40  41
TORSDOF 11
ENDMDL
MODEL 2
REMARK VINA RESULT:      -6.0      3.415      8.670
REMARK  Name = ZINC95485997
REMARK  17 active torsions:
REMARK  status: ('A' for Active; 'I' for Inactive)
REMARK    1  A    between atoms: C1_1  and  C2_2
REMARK    2  A    between atoms: C2_2  and  O2_4
REMARK    3  A    between atoms: O2_4  and  C3_5
REMARK    4  A    between atoms: C5_9  and  O6_42
REMARK    5  A    between atoms: C7_12  and  C28_37
REMARK    6  A    between atoms: C8_13  and  O3_15
REMARK    7  A    between atoms: O3_15  and  C9_16
REMARK    8  A    between atoms: C9_16  and  C10_17
REMARK    9  A    between atoms: C17_24  and  C21_30
REMARK   10  A    between atoms: C19_27  and  C20_28
REMARK   11  A    between atoms: C19_27  and  O4_29
REMARK   12  A    between atoms: C21_30  and  C22_31
REMARK   13  A    between atoms: C29_39  and  C30_40
REMARK   14  A    between atoms: C29_39  and  C31_41
REMARK   15  A    between atoms: O6_42  and  C32_43
REMARK   16  A    between atoms: C35_47  and  C38_52
REMARK   17  A    between atoms: N1_50  and  C37_51
REMARK                            x       y       z     vdW  Elec       q    Type
REMARK                         _______ _______ _______ _____ _____    ______ ____
ROOT
ATOM      4  C   UNL     1      47.138  16.158  18.683  0.00  0.00    +0.166 C 
ATOM      5  C   UNL     1      46.341  16.450  19.952  0.00  0.00    -0.032 C 
ATOM      6  C   UNL     1      46.281  18.014  20.039  0.00  0.00    +0.142 C 
ATOM     19  C   UNL     1      47.741  18.283  20.452  0.00  0.00    +0.164 C 
ATOM     20  O   UNL     1      48.127  17.182  21.314  0.00  0.00    -0.325 OA
ATOM     21  C   UNL     1      48.621  18.182  19.208  0.00  0.00    -0.043 C 
ATOM     22  C   UNL     1      48.193  19.131  18.085  0.00  0.00    +0.046 C 
ATOM     23  C   UNL     1      50.078  18.443  19.584  0.00  0.00    +0.061 C 
ATOM     24  C   UNL     1      50.307  19.700  20.395  0.00  0.00    -0.004 C 
ATOM     32  C   UNL     1      49.338  19.905  21.538  0.00  0.00    +0.010 C 
ATOM     33  C   UNL     1      47.886  19.572  21.225  0.00  0.00    +0.161 C 
ATOM     36  C   UNL     1      47.192  20.751  20.553  0.00  0.00    +0.022 C 
ATOM     37  C   UNL     1      47.150  16.139  21.225  0.00  0.00    +0.131 C 
ATOM     38  C   UNL     1      47.798  14.759  21.193  0.00  0.00    +0.051 C 
ATOM     39  C   UNL     1      46.233  16.195  22.460  0.00  0.00    +0.026 C 
ATOM     40  C   UNL     1      48.531  16.750  18.650  0.00  0.00    +0.149 C 
ENDROOT
BRANCH  33  34
ATOM     34  O   UNL     1      47.231  19.377  22.504  0.00  0.00    -0.538 OA
ATOM     35  H   UNL     1      47.093  20.193  23.004  0.00  0.00    +0.364 HD
ENDBRANCH  33  34
BRANCH   4   3
ATOM      3  O   UNL     1      47.183  14.753  18.413  0.00  0.00    -0.332 OA
BRANCH   3   2
ATOM      1  C   UNL     1      46.506  12.891  16.939  0.00  0.00    +0.156 C 
ATOM      2  C   UNL     1      46.772  14.351  17.200  0.00  0.00    +0.450 C 
ATOM     49  O   UNL     1      46.616  15.161  16.316  0.00  0.00    -0.508 OA
ENDBRANCH   3   2
ENDBRANCH   4   3
BRANCH   6   7
ATOM      7  O   UNL     1      45.320  18.448  21.002  0.00  0.00    -0.321 OA
BRANCH   7   8
ATOM      8  C   UNL     1      44.323  19.325  20.474  0.00  0.00    +0.374 C 
ATOM      9  C   UNL     1      44.279  19.181  18.954  0.00  0.00    +0.091 C 
ATOM     10  C   UNL     1      43.100  19.937  18.399  0.00  0.00    +0.043 C 
ATOM     11  C   UNL     1      41.950  19.995  19.108  0.00  0.00    -0.202 C 
ATOM     15  C   UNL     1      41.883  19.313  20.419  0.00  0.00    +0.558 C 
ATOM     16  O   UNL     1      40.805  19.050  20.918  0.00  0.00    -0.496 OA
ATOM     17  N   UNL     1      43.024  18.984  21.052  0.00  0.00    -0.639 N 
ATOM     18  C   UNL     1      42.962  18.282  22.336  0.00  0.00    +0.264 C 
BRANCH  11  12
ATOM     12  C   UNL     1      40.783  20.725  18.583  0.00  0.00    +0.528 C 
ATOM     13  O   UNL     1      40.599  21.893  18.900  0.00  0.00    -0.662 OA
ATOM     14  O   UNL     1      39.998  20.164  17.832  0.00  0.00    -0.691 OA
ENDBRANCH  11  12
ENDBRANCH   7   8
ENDBRANCH   6   7
BRANCH  24  25
ATOM     25  C   UNL     1      50.425  20.945  19.518  0.00  0.00    +0.065 C 
BRANCH  25  26
ATOM     26  C   UNL     1      51.097  20.582  18.218  0.00  0.00    -0.073 A 
ATOM     27  C   UNL     1      50.938  21.390  17.109  0.00  0.00    +0.003 A 
ATOM     28  C   UNL     1      51.554  21.058  15.917  0.00  0.00    +0.004 A 
ATOM     29  C   UNL     1      52.329  19.916  15.835  0.00  0.00    -0.008 A 
ATOM     30  C   UNL     1      52.488  19.108  16.945  0.00  0.00    +0.000 A 
ATOM     31  C   UNL     1      51.876  19.443  18.137  0.00  0.00    +0.000 A 
ENDBRANCH  25  26
ENDBRANCH  24  25
BRANCH  40  41
ATOM     41  O   UNL     1      49.490  15.901  19.263  0.00  0.00    -0.330 OA
BRANCH  41  42
ATOM     42  C   UNL     1      50.603  15.580  18.426  0.00  0.00    +0.202 C 
BRANCH  42  43
ATOM     43  C   UNL     1      50.406  14.208  17.834  0.00  0.00    -0.084 A 
ATOM     44  C   UNL     1      50.475  14.029  16.465  0.00  0.00    +0.023 A 
ATOM     45  C   UNL     1      50.295  12.770  15.922  0.00  0.00    -0.002 A 
ATOM     46  C   UNL     1      50.046  11.691  16.749  0.00  0.00    +0.006 A 
ATOM     47  C   UNL     1      49.978  11.869  18.117  0.00  0.00    +0.000 A 
ATOM     48  C   UNL     1      50.163  13.127  18.661  0.00  0.00    +0.029 A 
ENDBRANCH  42  43
ENDBRANCH  41  42
ENDBRANCH  40  41
TORSDOF 11
ENDMDL
MODEL 3
REMARK VINA RESULT:      -5.8      3.096      8.370
REMARK  Name = ZINC95485997
REMARK  17 active torsions:
REMARK  status: ('A' for Active; 'I' for Inactive)
REMARK    1  A    between atoms: C1_1  and  C2_2
REMARK    2  A    between atoms: C2_2  and  O2_4
REMARK    3  A    between atoms: O2_4  and  C3_5
REMARK    4  A    between atoms: C5_9  and  O6_42
REMARK    5  A    between atoms: C7_12  and  C28_37
REMARK    6  A    between atoms: C8_13  and  O3_15
REMARK    7  A    between atoms: O3_15  and  C9_16
REMARK    8  A    between atoms: C9_16  and  C10_17
REMARK    9  A    between atoms: C17_24  and  C21_30
REMARK   10  A    between atoms: C19_27  and  C20_28
REMARK   11  A    between atoms: C19_27  and  O4_29
REMARK   12  A    between atoms: C21_30  and  C22_31
REMARK   13  A    between atoms: C29_39  and  C30_40
REMARK   14  A    between atoms: C29_39  and  C31_41
REMARK   15  A    between atoms: O6_42  and  C32_43
REMARK   16  A    between atoms: C35_47  and  C38_52
REMARK   17  A    between atoms: N1_50  and  C37_51
REMARK                            x       y       z     vdW  Elec       q    Type
REMARK                         _______ _______ _______ _____ _____    ______ ____
ROOT
ATOM      4  C   UNL     1      50.712  15.952  19.919  0.00  0.00    +0.166 C 
ATOM      5  C   UNL     1      50.229  17.132  19.079  0.00  0.00    -0.032 C 
ATOM      6  C   UNL     1      48.667  16.996  19.054  0.00  0.00    +0.142 C 
ATOM     19  C   UNL     1      48.551  15.792  18.099  0.00  0.00    +0.164 C 
ATOM     20  O   UNL     1      49.623  15.937  17.133  0.00  0.00    -0.325 OA
ATOM     21  C   UNL     1      48.853  14.520  18.887  0.00  0.00    -0.043 C 
ATOM     22  C   UNL     1      47.946  14.333  20.106  0.00  0.00    +0.046 C 
ATOM     23  C   UNL     1      48.746  13.305  17.966  0.00  0.00    +0.061 C 
ATOM     24  C   UNL     1      47.470  13.235  17.157  0.00  0.00    -0.004 C 
ATOM     32  C   UNL     1      47.061  14.534  16.500  0.00  0.00    +0.010 C 
ATOM     33  C   UNL     1      47.235  15.778  17.358  0.00  0.00    +0.161 C 
ATOM     36  C   UNL     1      46.033  15.977  18.275  0.00  0.00    +0.022 C 
ATOM     37  C   UNL     1      50.541  16.940  17.583  0.00  0.00    +0.131 C 
ATOM     38  C   UNL     1      51.989  16.536  17.327  0.00  0.00    +0.051 C 
ATOM     39  C   UNL     1      50.279  18.249  16.818  0.00  0.00    +0.026 C 
ATOM     40  C   UNL     1      50.302  14.588  19.406  0.00  0.00    +0.149 C 
ENDROOT
BRANCH  33  34
ATOM     34  O   UNL     1      47.250  16.903  16.443  0.00  0.00    -0.538 OA
ATOM     35  H   UNL     1      47.487  17.744  16.857  0.00  0.00    +0.364 HD
ENDBRANCH  33  34
BRANCH   4   3
ATOM      3  O   UNL     1      52.129  16.007  20.121  0.00  0.00    -0.332 OA
BRANCH   3   2
ATOM      1  C   UNL     1      51.714  16.628  22.474  0.00  0.00    +0.156 C 
ATOM      2  C   UNL     1      52.563  16.627  21.229  0.00  0.00    +0.450 C 
ATOM     49  O   UNL     1      53.635  17.184  21.228  0.00  0.00    -0.508 OA
ENDBRANCH   3   2
ENDBRANCH   4   3
BRANCH   6   7
ATOM      7  O   UNL     1      48.046  18.184  18.564  0.00  0.00    -0.321 OA
BRANCH   7   8
ATOM      8  C   UNL     1      47.588  19.067  19.590  0.00  0.00    +0.374 C 
ATOM      9  C   UNL     1      48.666  20.108  19.880  0.00  0.00    +0.091 C 
ATOM     10  C   UNL     1      48.125  21.167  20.804  0.00  0.00    +0.043 C 
ATOM     11  C   UNL     1      46.831  21.543  20.703  0.00  0.00    -0.202 C 
ATOM     15  C   UNL     1      45.975  20.896  19.685  0.00  0.00    +0.558 C 
ATOM     16  O   UNL     1      44.937  21.423  19.333  0.00  0.00    -0.496 OA
ATOM     17  N   UNL     1      46.357  19.722  19.149  0.00  0.00    -0.639 N 
ATOM     18  C   UNL     1      45.528  19.093  18.118  0.00  0.00    +0.264 C 
BRANCH  11  12
ATOM     12  C   UNL     1      46.281  22.580  21.594  0.00  0.00    +0.528 C 
ATOM     13  O   UNL     1      46.580  23.754  21.425  0.00  0.00    -0.662 OA
ATOM     14  O   UNL     1      45.527  22.266  22.505  0.00  0.00    -0.691 OA
ENDBRANCH  11  12
ENDBRANCH   7   8
ENDBRANCH   6   7
BRANCH  24  25
ATOM     25  C   UNL     1      46.320  12.605  17.939  0.00  0.00    +0.065 C 
BRANCH  25  26
ATOM     26  C   UNL     1      45.404  11.877  16.989  0.00  0.00    -0.073 A 
ATOM     27  C   UNL     1      45.921  10.945  16.109  0.00  0.00    +0.003 A 
ATOM     28  C   UNL     1      45.082  10.277  15.237  0.00  0.00    +0.004 A 
ATOM     29  C   UNL     1      43.725  10.541  15.246  0.00  0.00    -0.008 A 
ATOM     30  C   UNL     1      43.208  11.472  16.127  0.00  0.00    +0.000 A 
ATOM     31  C   UNL     1      44.047  12.137  17.001  0.00  0.00    +0.000 A 
ENDBRANCH  25  26
ENDBRANCH  24  25
BRANCH  40  41
ATOM     41  O   UNL     1      51.213  14.079  18.444  0.00  0.00    -0.330 OA
BRANCH  41  42
ATOM     42  C   UNL     1      51.808  12.832  18.810  0.00  0.00    +0.202 C 
BRANCH  42  43
ATOM     43  C   UNL     1      52.226  12.091  17.567  0.00  0.00    -0.084 A 
ATOM     44  C   UNL     1      53.080  11.008  17.661  0.00  0.00    +0.023 A 
ATOM     45  C   UNL     1      53.464  10.328  16.520  0.00  0.00    -0.002 A 
ATOM     46  C   UNL     1      52.994  10.732  15.285  0.00  0.00    +0.006 A 
ATOM     47  C   UNL     1      52.140  11.813  15.189  0.00  0.00    +0.000 A 
ATOM     48  C   UNL     1      51.752  12.491  16.331  0.00  0.00    +0.029 A 
ENDBRANCH  42  43
ENDBRANCH  41  42
ENDBRANCH  40  41
TORSDOF 11
ENDMDL
MODEL 4
REMARK VINA RESULT:      -5.7      2.634      5.758
REMARK  Name = ZINC95485997
REMARK  17 active torsions:
REMARK  status: ('A' for Active; 'I' for Inactive)
REMARK    1  A    between atoms: C1_1  and  C2_2
REMARK    2  A    between atoms: C2_2  and  O2_4
REMARK    3  A    between atoms: O2_4  and  C3_5
REMARK    4  A    between atoms: C5_9  and  O6_42
REMARK    5  A    between atoms: C7_12  and  C28_37
REMARK    6  A    between atoms: C8_13  and  O3_15
REMARK    7  A    between atoms: O3_15  and  C9_16
REMARK    8  A    between atoms: C9_16  and  C10_17
REMARK    9  A    between atoms: C17_24  and  C21_30
REMARK   10  A    between atoms: C19_27  and  C20_28
REMARK   11  A    between atoms: C19_27  and  O4_29
REMARK   12  A    between atoms: C21_30  and  C22_31
REMARK   13  A    between atoms: C29_39  and  C30_40
REMARK   14  A    between atoms: C29_39  and  C31_41
REMARK   15  A    between atoms: O6_42  and  C32_43
REMARK   16  A    between atoms: C35_47  and  C38_52
REMARK   17  A    between atoms: N1_50  and  C37_51
REMARK                            x       y       z     vdW  Elec       q    Type
REMARK                         _______ _______ _______ _____ _____    ______ ____
ROOT
ATOM      4  C   UNL     1      49.040  13.842  19.515  0.00  0.00    +0.166 C 
ATOM      5  C   UNL     1      50.341  13.745  18.721  0.00  0.00    -0.032 C 
ATOM      6  C   UNL     1      51.207  14.954  19.217  0.00  0.00    +0.142 C 
ATOM     19  C   UNL     1      50.438  16.095  18.523  0.00  0.00    +0.164 C 
ATOM     20  O   UNL     1      49.980  15.562  17.254  0.00  0.00    -0.325 OA
ATOM     21  C   UNL     1      49.182  16.396  19.338  0.00  0.00    -0.043 C 
ATOM     22  C   UNL     1      49.479  16.752  20.798  0.00  0.00    +0.046 C 
ATOM     23  C   UNL     1      48.395  17.525  18.675  0.00  0.00    +0.061 C 
ATOM     24  C   UNL     1      49.212  18.752  18.335  0.00  0.00    -0.004 C 
ATOM     32  C   UNL     1      50.542  18.467  17.673  0.00  0.00    +0.010 C 
ATOM     33  C   UNL     1      51.317  17.293  18.252  0.00  0.00    +0.161 C 
ATOM     36  C   UNL     1      52.126  17.725  19.469  0.00  0.00    +0.022 C 
ATOM     37  C   UNL     1      50.146  14.139  17.245  0.00  0.00    +0.131 C 
ATOM     38  C   UNL     1      48.959  13.436  16.595  0.00  0.00    +0.051 C 
ATOM     39  C   UNL     1      51.403  13.779  16.433  0.00  0.00    +0.026 C 
ATOM     40  C   UNL     1      48.285  15.144  19.351  0.00  0.00    +0.149 C 
ENDROOT
BRANCH  33  34
ATOM     34  O   UNL     1      52.273  16.897  17.236  0.00  0.00    -0.538 OA
ATOM     35  H   UNL     1      51.878  16.443  16.479  0.00  0.00    +0.364 HD
ENDBRANCH  33  34
BRANCH   4   3
ATOM      3  O   UNL     1      48.184  12.728  19.242  0.00  0.00    -0.332 OA
BRANCH   3   2
ATOM      1  C   UNL     1      48.743  10.376  18.740  0.00  0.00    +0.156 C 
ATOM      2  C   UNL     1      48.580  11.529  19.697  0.00  0.00    +0.450 C 
ATOM     49  O   UNL     1      48.806  11.374  20.874  0.00  0.00    -0.508 OA
ENDBRANCH   3   2
ENDBRANCH   4   3
BRANCH   6   7
ATOM      7  O   UNL     1      52.565  14.833  18.793  0.00  0.00    -0.321 OA
BRANCH   7   8
ATOM      8  C   UNL     1      53.372  14.024  19.652  0.00  0.00    +0.374 C 
ATOM      9  C   UNL     1      53.449  12.608  19.086  0.00  0.00    +0.091 C 
ATOM     10  C   UNL     1      54.458  11.799  19.858  0.00  0.00    +0.043 C 
ATOM     11  C   UNL     1      55.571  12.399  20.335  0.00  0.00    -0.202 C 
ATOM     15  C   UNL     1      55.767  13.845  20.088  0.00  0.00    +0.558 C 
ATOM     16  O   UNL     1      56.873  14.339  20.190  0.00  0.00    -0.496 OA
ATOM     17  N   UNL     1      54.711  14.605  19.746  0.00  0.00    -0.639 N 
ATOM     18  C   UNL     1      54.905  16.031  19.471  0.00  0.00    +0.264 C 
BRANCH  11  12
ATOM     12  C   UNL     1      56.573  11.626  21.089  0.00  0.00    +0.528 C 
ATOM     13  O   UNL     1      56.564  11.642  22.312  0.00  0.00    -0.662 OA
ATOM     14  O   UNL     1      57.415  10.969  20.492  0.00  0.00    -0.691 OA
ENDBRANCH  11  12
ENDBRANCH   7   8
ENDBRANCH   6   7
BRANCH  24  25
ATOM     25  C   UNL     1      49.359  19.700  19.523  0.00  0.00    +0.065 C 
BRANCH  25  26
ATOM     26  C   UNL     1      48.016  20.296  19.861  0.00  0.00    -0.073 A 
ATOM     27  C   UNL     1      47.176  20.723  18.850  0.00  0.00    +0.003 A 
ATOM     28  C   UNL     1      45.944  21.268  19.160  0.00  0.00    +0.004 A 
ATOM     29  C   UNL     1      45.553  21.386  20.480  0.00  0.00    -0.008 A 
ATOM     30  C   UNL     1      46.393  20.958  21.491  0.00  0.00    +0.000 A 
ATOM     31  C   UNL     1      47.623  20.409  21.181  0.00  0.00    +0.000 A 
ENDBRANCH  25  26
ENDBRANCH  24  25
BRANCH  40  41
ATOM     41  O   UNL     1      47.418  15.126  18.227  0.00  0.00    -0.330 OA
BRANCH  41  42
ATOM     42  C   UNL     1      46.086  14.705  18.528  0.00  0.00    +0.202 C 
BRANCH  42  43
ATOM     43  C   UNL     1      45.479  15.643  19.539  0.00  0.00    -0.084 A 
ATOM     44  C   UNL     1      45.246  16.964  19.206  0.00  0.00    +0.023 A 
ATOM     45  C   UNL     1      44.690  17.824  20.134  0.00  0.00    -0.002 A 
ATOM     46  C   UNL     1      44.367  17.363  21.396  0.00  0.00    +0.006 A 
ATOM     47  C   UNL     1      44.598  16.042  21.731  0.00  0.00    +0.000 A 
ATOM     48  C   UNL     1      45.151  15.180  20.801  0.00  0.00    +0.029 A 
ENDBRANCH  42  43
ENDBRANCH  41  42
ENDBRANCH  40  41
TORSDOF 11
ENDMDL
MODEL 5
REMARK VINA RESULT:      -5.4      3.714      8.829
REMARK  Name = ZINC95485997
REMARK  17 active torsions:
REMARK  status: ('A' for Active; 'I' for Inactive)
REMARK    1  A    between atoms: C1_1  and  C2_2
REMARK    2  A    between atoms: C2_2  and  O2_4
REMARK    3  A    between atoms: O2_4  and  C3_5
REMARK    4  A    between atoms: C5_9  and  O6_42
REMARK    5  A    between atoms: C7_12  and  C28_37
REMARK    6  A    between atoms: C8_13  and  O3_15
REMARK    7  A    between atoms: O3_15  and  C9_16
REMARK    8  A    between atoms: C9_16  and  C10_17
REMARK    9  A    between atoms: C17_24  and  C21_30
REMARK   10  A    between atoms: C19_27  and  C20_28
REMARK   11  A    between atoms: C19_27  and  O4_29
REMARK   12  A    between atoms: C21_30  and  C22_31
REMARK   13  A    between atoms: C29_39  and  C30_40
REMARK   14  A    between atoms: C29_39  and  C31_41
REMARK   15  A    between atoms: O6_42  and  C32_43
REMARK   16  A    between atoms: C35_47  and  C38_52
REMARK   17  A    between atoms: N1_50  and  C37_51
REMARK                            x       y       z     vdW  Elec       q    Type
REMARK                         _______ _______ _______ _____ _____    ______ ____
ROOT
ATOM      4  C   UNL     1      46.777  16.877  18.821  0.00  0.00    +0.166 C 
ATOM      5  C   UNL     1      45.757  17.347  19.855  0.00  0.00    -0.032 C 
ATOM      6  C   UNL     1      45.921  18.906  19.903  0.00  0.00    +0.142 C 
ATOM     19  C   UNL     1      47.265  18.978  20.654  0.00  0.00    +0.164 C 
ATOM     20  O   UNL     1      47.260  17.878  21.599  0.00  0.00    -0.325 OA
ATOM     21  C   UNL     1      48.388  18.685  19.662  0.00  0.00    -0.043 C 
ATOM     22  C   UNL     1      48.391  19.628  18.455  0.00  0.00    +0.046 C 
ATOM     23  C   UNL     1      49.737  18.748  20.376  0.00  0.00    +0.061 C 
ATOM     24  C   UNL     1      49.959  19.998  21.200  0.00  0.00    -0.004 C 
ATOM     32  C   UNL     1      48.790  20.401  22.071  0.00  0.00    +0.010 C 
ATOM     33  C   UNL     1      47.421  20.269  21.421  0.00  0.00    +0.161 C 
ATOM     36  C   UNL     1      47.097  21.501  20.584  0.00  0.00    +0.022 C 
ATOM     37  C   UNL     1      46.183  16.986  21.290  0.00  0.00    +0.131 C 
ATOM     38  C   UNL     1      46.598  15.526  21.436  0.00  0.00    +0.051 C 
ATOM     39  C   UNL     1      45.019  17.239  22.265  0.00  0.00    +0.026 C 
ATOM     40  C   UNL     1      48.212  17.255  19.119  0.00  0.00    +0.149 C 
ENDROOT
BRANCH  33  34
ATOM     34  O   UNL     1      46.458  20.238  22.505  0.00  0.00    -0.538 OA
ATOM     35  H   UNL     1      46.107  21.106  22.744  0.00  0.00    +0.364 HD
ENDBRANCH  33  34
BRANCH   4   3
ATOM      3  O   UNL     1      46.667  15.468  18.590  0.00  0.00    -0.332 OA
BRANCH   3   2
ATOM      1  C   UNL     1      46.783  13.595  16.985  0.00  0.00    +0.156 C 
ATOM      2  C   UNL     1      46.644  15.060  17.312  0.00  0.00    +0.450 C 
ATOM     49  O   UNL     1      46.513  15.868  16.422  0.00  0.00    -0.508 OA
ENDBRANCH   3   2
ENDBRANCH   4   3
BRANCH   6   7
ATOM      7  O   UNL     1      44.838  19.525  20.598  0.00  0.00    -0.321 OA
BRANCH   7   8
ATOM      8  C   UNL     1      43.643  19.644  19.824  0.00  0.00    +0.374 C 
ATOM      9  C   UNL     1      42.470  19.070  20.616  0.00  0.00    +0.091 C 
ATOM     10  C   UNL     1      41.174  19.372  19.910  0.00  0.00    +0.043 C 
ATOM     11  C   UNL     1      41.035  20.539  19.242  0.00  0.00    -0.202 C 
ATOM     15  C   UNL     1      42.167  21.491  19.219  0.00  0.00    +0.558 C 
ATOM     16  O   UNL     1      41.980  22.659  18.938  0.00  0.00    -0.496 OA
ATOM     17  N   UNL     1      43.404  21.053  19.516  0.00  0.00    -0.639 N 
ATOM     18  C   UNL     1      44.524  21.998  19.525  0.00  0.00    +0.264 C 
BRANCH  11  12
ATOM     12  C   UNL     1      39.775  20.857  18.547  0.00  0.00    +0.528 C 
ATOM     13  O   UNL     1      39.094  21.804  18.917  0.00  0.00    -0.662 OA
ATOM     14  O   UNL     1      39.410  20.174  17.600  0.00  0.00    -0.691 OA
ENDBRANCH  11  12
ENDBRANCH   7   8
ENDBRANCH   6   7
BRANCH  24  25
ATOM     25  C   UNL     1      50.473  21.165  20.360  0.00  0.00    +0.065 C 
BRANCH  25  26
ATOM     26  C   UNL     1      51.185  20.633  19.142  0.00  0.00    -0.073 A 
ATOM     27  C   UNL     1      50.998  21.237  17.914  0.00  0.00    +0.003 A 
ATOM     28  C   UNL     1      51.651  20.749  16.797  0.00  0.00    +0.004 A 
ATOM     29  C   UNL     1      52.490  19.657  16.910  0.00  0.00    -0.008 A 
ATOM     30  C   UNL     1      52.678  19.054  18.139  0.00  0.00    +0.000 A 
ATOM     31  C   UNL     1      52.028  19.544  19.256  0.00  0.00    +0.000 A 
ENDBRANCH  25  26
ENDBRANCH  24  25
BRANCH  40  41
ATOM     41  O   UNL     1      48.855  16.307  19.958  0.00  0.00    -0.330 OA
BRANCH  41  42
ATOM     42  C   UNL     1      49.717  15.404  19.262  0.00  0.00    +0.202 C 
BRANCH  42  43
ATOM     43  C   UNL     1      51.142  15.640  19.689  0.00  0.00    -0.084 A 
ATOM     44  C   UNL     1      51.420  16.032  20.986  0.00  0.00    +0.023 A 
ATOM     45  C   UNL     1      52.728  16.249  21.378  0.00  0.00    -0.002 A 
ATOM     46  C   UNL     1      53.758  16.074  20.473  0.00  0.00    +0.006 A 
ATOM     47  C   UNL     1      53.482  15.682  19.178  0.00  0.00    +0.000 A 
ATOM     48  C   UNL     1      52.174  15.461  18.786  0.00  0.00    +0.029 A 
ENDBRANCH  42  43
ENDBRANCH  41  42
ENDBRANCH  40  41
TORSDOF 11
ENDMDL
MODEL 6
REMARK VINA RESULT:      -4.8      3.209      8.818
REMARK  Name = ZINC95485997
REMARK  17 active torsions:
REMARK  status: ('A' for Active; 'I' for Inactive)
REMARK    1  A    between atoms: C1_1  and  C2_2
REMARK    2  A    between atoms: C2_2  and  O2_4
REMARK    3  A    between atoms: O2_4  and  C3_5
REMARK    4  A    between atoms: C5_9  and  O6_42
REMARK    5  A    between atoms: C7_12  and  C28_37
REMARK    6  A    between atoms: C8_13  and  O3_15
REMARK    7  A    between atoms: O3_15  and  C9_16
REMARK    8  A    between atoms: C9_16  and  C10_17
REMARK    9  A    between atoms: C17_24  and  C21_30
REMARK   10  A    between atoms: C19_27  and  C20_28
REMARK   11  A    between atoms: C19_27  and  O4_29
REMARK   12  A    between atoms: C21_30  and  C22_31
REMARK   13  A    between atoms: C29_39  and  C30_40
REMARK   14  A    between atoms: C29_39  and  C31_41
REMARK   15  A    between atoms: O6_42  and  C32_43
REMARK   16  A    between atoms: C35_47  and  C38_52
REMARK   17  A    between atoms: N1_50  and  C37_51
REMARK                            x       y       z     vdW  Elec       q    Type
REMARK                         _______ _______ _______ _____ _____    ______ ____
ROOT
ATOM      4  C   UNL     1      46.447  14.017  18.379  0.00  0.00    +0.166 C 
ATOM      5  C   UNL     1      46.187  14.804  19.661  0.00  0.00    -0.032 C 
ATOM      6  C   UNL     1      46.610  16.275  19.324  0.00  0.00    +0.142 C 
ATOM     19  C   UNL     1      48.139  16.084  19.314  0.00  0.00    +0.164 C 
ATOM     20  O   UNL     1      48.431  15.100  20.339  0.00  0.00    -0.325 OA
ATOM     21  C   UNL     1      48.538  15.448  17.985  0.00  0.00    -0.043 C 
ATOM     22  C   UNL     1      48.085  16.258  16.766  0.00  0.00    +0.046 C 
ATOM     23  C   UNL     1      50.051  15.244  17.943  0.00  0.00    +0.061 C 
ATOM     24  C   UNL     1      50.865  16.468  18.304  0.00  0.00    -0.004 C 
ATOM     32  C   UNL     1      50.385  17.212  19.530  0.00  0.00    +0.010 C 
ATOM     33  C   UNL     1      48.875  17.360  19.649  0.00  0.00    +0.161 C 
ATOM     36  C   UNL     1      48.383  18.559  18.848  0.00  0.00    +0.022 C 
ATOM     37  C   UNL     1      47.214  14.472  20.760  0.00  0.00    +0.131 C 
ATOM     38  C   UNL     1      47.396  12.972  20.968  0.00  0.00    +0.051 C 
ATOM     39  C   UNL     1      46.767  15.079  22.102  0.00  0.00    +0.026 C 
ATOM     40  C   UNL     1      47.875  14.062  17.878  0.00  0.00    +0.149 C 
ENDROOT
BRANCH  33  34
ATOM     34  O   UNL     1      48.605  17.652  21.044  0.00  0.00    -0.538 OA
ATOM     35  H   UNL     1      49.197  18.312  21.430  0.00  0.00    +0.364 HD
ENDBRANCH  33  34
BRANCH   4   3
ATOM      3  O   UNL     1      46.002  12.662  18.505  0.00  0.00    -0.332 OA
BRANCH   3   2
ATOM      1  C   UNL     1      45.651  11.450  16.382  0.00  0.00    +0.156 C 
ATOM      2  C   UNL     1      45.141  12.215  17.577  0.00  0.00    +0.450 C 
ATOM     49  O   UNL     1      43.958  12.425  17.699  0.00  0.00    -0.508 OA
ENDBRANCH   3   2
ENDBRANCH   4   3
BRANCH   6   7
ATOM      7  O   UNL     1      46.150  17.193  20.317  0.00  0.00    -0.321 OA
BRANCH   7   8
ATOM      8  C   UNL     1      44.758  17.504  20.220  0.00  0.00    +0.374 C 
ATOM      9  C   UNL     1      44.096  17.279  21.578  0.00  0.00    +0.091 C 
ATOM     10  C   UNL     1      42.681  17.797  21.553  0.00  0.00    +0.043 C 
ATOM     11  C   UNL     1      42.387  18.900  20.830  0.00  0.00    -0.202 C 
ATOM     15  C   UNL     1      43.468  19.570  20.074  0.00  0.00    +0.558 C 
ATOM     16  O   UNL     1      43.334  20.721  19.702  0.00  0.00    -0.496 OA
ATOM     17  N   UNL     1      44.602  18.897  19.805  0.00  0.00    -0.639 N 
ATOM     18  C   UNL     1      45.687  19.566  19.084  0.00  0.00    +0.264 C 
BRANCH  11  12
ATOM     12  C   UNL     1      41.011  19.426  20.793  0.00  0.00    +0.528 C 
ATOM     13  O   UNL     1      40.275  19.283  21.760  0.00  0.00    -0.662 OA
ATOM     14  O   UNL     1      40.605  20.005  19.796  0.00  0.00    -0.691 OA
ENDBRANCH  11  12
ENDBRANCH   7   8
ENDBRANCH   6   7
BRANCH  24  25
ATOM     25  C   UNL     1      51.068  17.402  17.113  0.00  0.00    +0.065 C 
BRANCH  25  26
ATOM     26  C   UNL     1      51.548  18.744  17.603  0.00  0.00    -0.073 A 
ATOM     27  C   UNL     1      52.563  18.816  18.538  0.00  0.00    +0.003 A 
ATOM     28  C   UNL     1      53.003  20.047  18.987  0.00  0.00    +0.004 A 
ATOM     29  C   UNL     1      52.428  21.206  18.502  0.00  0.00    -0.008 A 
ATOM     30  C   UNL     1      51.413  21.134  17.566  0.00  0.00    +0.000 A 
ATOM     31  C   UNL     1      50.976  19.903  17.114  0.00  0.00    +0.000 A 
ENDBRANCH  25  26
ENDBRANCH  24  25
BRANCH  40  41
ATOM     41  O   UNL     1      48.686  13.061  18.475  0.00  0.00    -0.330 OA
BRANCH  41  42
ATOM     42  C   UNL     1      48.835  11.883  17.679  0.00  0.00    +0.202 C 
BRANCH  42  43
ATOM     43  C   UNL     1      49.654  12.202  16.456  0.00  0.00    -0.084 A 
ATOM     44  C   UNL     1      51.034  12.189  16.525  0.00  0.00    +0.023 A 
ATOM     45  C   UNL     1      51.786  12.483  15.402  0.00  0.00    -0.002 A 
ATOM     46  C   UNL     1      51.157  12.790  14.211  0.00  0.00    +0.006 A 
ATOM     47  C   UNL     1      49.777  12.802  14.140  0.00  0.00    +0.000 A 
ATOM     48  C   UNL     1      49.025  12.504  15.262  0.00  0.00    +0.029 A 
ENDBRANCH  42  43
ENDBRANCH  41  42
ENDBRANCH  40  41
TORSDOF 11
ENDMDL
MODEL 7
REMARK VINA RESULT:      -4.8      3.118      8.274
REMARK  Name = ZINC95485997
REMARK  17 active torsions:
REMARK  status: ('A' for Active; 'I' for Inactive)
REMARK    1  A    between atoms: C1_1  and  C2_2
REMARK    2  A    between atoms: C2_2  and  O2_4
REMARK    3  A    between atoms: O2_4  and  C3_5
REMARK    4  A    between atoms: C5_9  and  O6_42
REMARK    5  A    between atoms: C7_12  and  C28_37
REMARK    6  A    between atoms: C8_13  and  O3_15
REMARK    7  A    between atoms: O3_15  and  C9_16
REMARK    8  A    between atoms: C9_16  and  C10_17
REMARK    9  A    between atoms: C17_24  and  C21_30
REMARK   10  A    between atoms: C19_27  and  C20_28
REMARK   11  A    between atoms: C19_27  and  O4_29
REMARK   12  A    between atoms: C21_30  and  C22_31
REMARK   13  A    between atoms: C29_39  and  C30_40
REMARK   14  A    between atoms: C29_39  and  C31_41
REMARK   15  A    between atoms: O6_42  and  C32_43
REMARK   16  A    between atoms: C35_47  and  C38_52
REMARK   17  A    between atoms: N1_50  and  C37_51
REMARK                            x       y       z     vdW  Elec       q    Type
REMARK                         _______ _______ _______ _____ _____    ______ ____
ROOT
ATOM      4  C   UNL     1      51.215  17.980  20.536  0.00  0.00    +0.166 C 
ATOM      5  C   UNL     1      50.392  18.698  19.469  0.00  0.00    -0.032 C 
ATOM      6  C   UNL     1      49.119  17.803  19.272  0.00  0.00    +0.142 C 
ATOM     19  C   UNL     1      49.770  16.633  18.509  0.00  0.00    +0.164 C 
ATOM     20  O   UNL     1      50.800  17.218  17.673  0.00  0.00    -0.325 OA
ATOM     21  C   UNL     1      50.492  15.741  19.517  0.00  0.00    -0.043 C 
ATOM     22  C   UNL     1      49.577  15.220  20.629  0.00  0.00    +0.046 C 
ATOM     23  C   UNL     1      51.149  14.569  18.790  0.00  0.00    +0.061 C 
ATOM     24  C   UNL     1      50.236  13.814  17.850  0.00  0.00    -0.004 C 
ATOM     32  C   UNL     1      49.386  14.686  16.953  0.00  0.00    +0.010 C 
ATOM     33  C   UNL     1      48.783  15.913  17.622  0.00  0.00    +0.161 C 
ATOM     36  C   UNL     1      47.487  15.556  18.340  0.00  0.00    +0.022 C 
ATOM     37  C   UNL     1      51.027  18.575  18.072  0.00  0.00    +0.131 C 
ATOM     38  C   UNL     1      52.512  18.926  18.063  0.00  0.00    +0.051 C 
ATOM     39  C   UNL     1      50.319  19.520  17.085  0.00  0.00    +0.026 C 
ATOM     40  C   UNL     1      51.608  16.558  20.194  0.00  0.00    +0.149 C 
ENDROOT
BRANCH  33  34
ATOM     34  O   UNL     1      48.428  16.825  16.552  0.00  0.00    -0.538 OA
ATOM     35  H   UNL     1      48.373  16.409  15.682  0.00  0.00    +0.364 HD
ENDBRANCH  33  34
BRANCH   4   3
ATOM      3  O   UNL     1      52.369  18.745  20.901  0.00  0.00    -0.332 OA
BRANCH   3   2
ATOM      1  C   UNL     1      52.642  21.195  20.761  0.00  0.00    +0.156 C 
ATOM      2  C   UNL     1      52.152  19.949  21.453  0.00  0.00    +0.450 C 
ATOM     49  O   UNL     1      51.563  20.034  22.505  0.00  0.00    -0.508 OA
ENDBRANCH   3   2
ENDBRANCH   4   3
BRANCH   6   7
ATOM      7  O   UNL     1      48.110  18.486  18.530  0.00  0.00    -0.321 OA
BRANCH   7   8
ATOM      8  C   UNL     1      47.288  19.346  19.321  0.00  0.00    +0.374 C 
ATOM      9  C   UNL     1      47.810  20.777  19.219  0.00  0.00    +0.091 C 
ATOM     10  C   UNL     1      46.842  21.728  19.874  0.00  0.00    +0.043 C 
ATOM     11  C   UNL     1      45.515  21.485  19.798  0.00  0.00    -0.202 C 
ATOM     15  C   UNL     1      45.047  20.282  19.074  0.00  0.00    +0.558 C 
ATOM     16  O   UNL     1      43.894  20.206  18.693  0.00  0.00    -0.496 OA
ATOM     17  N   UNL     1      45.909  19.276  18.838  0.00  0.00    -0.639 N 
ATOM     18  C   UNL     1      45.459  18.097  18.095  0.00  0.00    +0.264 C 
BRANCH  11  12
ATOM     12  C   UNL     1      44.548  22.402  20.427  0.00  0.00    +0.528 C 
ATOM     13  O   UNL     1      44.352  22.351  21.634  0.00  0.00    -0.662 OA
ATOM     14  O   UNL     1      43.942  23.215  19.743  0.00  0.00    -0.691 OA
ENDBRANCH  11  12
ENDBRANCH   7   8
ENDBRANCH   6   7
BRANCH  24  25
ATOM     25  C   UNL     1      49.404  12.757  18.572  0.00  0.00    +0.065 C 
BRANCH  25  26
ATOM     26  C   UNL     1      48.593  11.981  17.565  0.00  0.00    -0.073 A 
ATOM     27  C   UNL     1      47.215  11.946  17.666  0.00  0.00    +0.003 A 
ATOM     28  C   UNL     1      46.473  11.235  16.743  0.00  0.00    +0.004 A 
ATOM     29  C   UNL     1      47.108  10.558  15.719  0.00  0.00    -0.008 A 
ATOM     30  C   UNL     1      48.486  10.594  15.617  0.00  0.00    +0.000 A 
ATOM     31  C   UNL     1      49.228  11.309  16.538  0.00  0.00    +0.000 A 
ENDBRANCH  25  26
ENDBRANCH  24  25
BRANCH  40  41
ATOM     41  O   UNL     1      52.812  16.498  19.444  0.00  0.00    -0.330 OA
BRANCH  41  42
ATOM     42  C   UNL     1      53.993  16.421  20.246  0.00  0.00    +0.202 C 
BRANCH  42  43
ATOM     43  C   UNL     1      54.700  15.119  19.973  0.00  0.00    -0.084 A 
ATOM     44  C   UNL     1      54.006  13.925  20.048  0.00  0.00    +0.023 A 
ATOM     45  C   UNL     1      54.655  12.730  19.798  0.00  0.00    -0.002 A 
ATOM     46  C   UNL     1      55.998  12.729  19.474  0.00  0.00    +0.006 A 
ATOM     47  C   UNL     1      56.692  13.921  19.397  0.00  0.00    +0.000 A 
ATOM     48  C   UNL     1      56.042  15.117  19.642  0.00  0.00    +0.029 A 
ENDBRANCH  42  43
ENDBRANCH  41  42
ENDBRANCH  40  41
TORSDOF 11
ENDMDL
MODEL 8
REMARK VINA RESULT:      -4.7      3.044      8.386
REMARK  Name = ZINC95485997
REMARK  17 active torsions:
REMARK  status: ('A' for Active; 'I' for Inactive)
REMARK    1  A    between atoms: C1_1  and  C2_2
REMARK    2  A    between atoms: C2_2  and  O2_4
REMARK    3  A    between atoms: O2_4  and  C3_5
REMARK    4  A    between atoms: C5_9  and  O6_42
REMARK    5  A    between atoms: C7_12  and  C28_37
REMARK    6  A    between atoms: C8_13  and  O3_15
REMARK    7  A    between atoms: O3_15  and  C9_16
REMARK    8  A    between atoms: C9_16  and  C10_17
REMARK    9  A    between atoms: C17_24  and  C21_30
REMARK   10  A    between atoms: C19_27  and  C20_28
REMARK   11  A    between atoms: C19_27  and  O4_29
REMARK   12  A    between atoms: C21_30  and  C22_31
REMARK   13  A    between atoms: C29_39  and  C30_40
REMARK   14  A    between atoms: C29_39  and  C31_41
REMARK   15  A    between atoms: O6_42  and  C32_43
REMARK   16  A    between atoms: C35_47  and  C38_52
REMARK   17  A    between atoms: N1_50  and  C37_51
REMARK                            x       y       z     vdW  Elec       q    Type
REMARK                         _______ _______ _______ _____ _____    ______ ____
ROOT
ATOM      4  C   UNL     1      50.990  17.505  20.161  0.00  0.00    +0.166 C 
ATOM      5  C   UNL     1      49.921  17.616  19.076  0.00  0.00    -0.032 C 
ATOM      6  C   UNL     1      49.070  16.306  19.214  0.00  0.00    +0.142 C 
ATOM     19  C   UNL     1      50.084  15.304  18.630  0.00  0.00    +0.164 C 
ATOM     20  O   UNL     1      50.790  16.009  17.578  0.00  0.00    -0.325 OA
ATOM     21  C   UNL     1      51.123  14.986  19.704  0.00  0.00    -0.043 C 
ATOM     22  C   UNL     1      50.509  14.444  20.998  0.00  0.00    +0.046 C 
ATOM     23  C   UNL     1      52.146  13.993  19.155  0.00  0.00    +0.061 C 
ATOM     24  C   UNL     1      51.549  12.767  18.500  0.00  0.00    -0.004 C 
ATOM     32  C   UNL     1      50.403  13.046  17.553  0.00  0.00    +0.010 C 
ATOM     33  C   UNL     1      49.409  14.094  18.029  0.00  0.00    +0.161 C 
ATOM     36  C   UNL     1      48.367  13.474  18.952  0.00  0.00    +0.022 C 
ATOM     37  C   UNL     1      50.506  17.410  17.667  0.00  0.00    +0.131 C 
ATOM     38  C   UNL     1      51.750  18.256  17.412  0.00  0.00    +0.051 C 
ATOM     39  C   UNL     1      49.461  17.785  16.601  0.00  0.00    +0.026 C 
ATOM     40  C   UNL     1      51.874  16.280  20.067  0.00  0.00    +0.149 C 
ENDROOT
BRANCH  33  34
ATOM     34  O   UNL     1      48.700  14.547  16.847  0.00  0.00    -0.538 OA
ATOM     35  H   UNL     1      48.890  14.031  16.052  0.00  0.00    +0.364 HD
ENDBRANCH  33  34
BRANCH   4   3
ATOM      3  O   UNL     1      51.784  18.694  20.226  0.00  0.00    -0.332 OA
BRANCH   3   2
ATOM      1  C   UNL     1      51.319  21.104  19.951  0.00  0.00    +0.156 C 
ATOM      2  C   UNL     1      51.189  19.801  20.698  0.00  0.00    +0.450 C 
ATOM     49  O   UNL     1      50.548  19.752  21.721  0.00  0.00    -0.508 OA
ENDBRANCH   3   2
ENDBRANCH   4   3
BRANCH   6   7
ATOM      7  O   UNL     1      47.852  16.392  18.474  0.00  0.00    -0.321 OA
BRANCH   7   8
ATOM      8  C   UNL     1      46.677  16.401  19.287  0.00  0.00    +0.374 C 
ATOM      9  C   UNL     1      47.081  16.427  20.759  0.00  0.00    +0.091 C 
ATOM     10  C   UNL     1      45.867  16.646  21.623  0.00  0.00    +0.043 C 
ATOM     11  C   UNL     1      44.868  17.442  21.181  0.00  0.00    -0.202 C 
ATOM     15  C   UNL     1      44.993  18.076  19.850  0.00  0.00    +0.558 C 
ATOM     16  O   UNL     1      44.309  19.040  19.564  0.00  0.00    -0.496 OA
ATOM     17  N   UNL     1      45.873  17.579  18.962  0.00  0.00    -0.639 N 
ATOM     18  C   UNL     1      46.023  18.222  17.654  0.00  0.00    +0.264 C 
BRANCH  11  12
ATOM     12  C   UNL     1      43.673  17.674  22.011  0.00  0.00    +0.528 C 
ATOM     13  O   UNL     1      43.453  18.786  22.471  0.00  0.00    -0.662 OA
ATOM     14  O   UNL     1      42.901  16.753  22.241  0.00  0.00    -0.691 OA
ENDBRANCH  11  12
ENDBRANCH   7   8
ENDBRANCH   6   7
BRANCH  24  25
ATOM     25  C   UNL     1      51.200  11.679  19.512  0.00  0.00    +0.065 C 
BRANCH  25  26
ATOM     26  C   UNL     1      52.458  11.198  20.189  0.00  0.00    -0.073 A 
ATOM     27  C   UNL     1      52.559  11.233  21.566  0.00  0.00    +0.003 A 
ATOM     28  C   UNL     1      53.713  10.792  22.186  0.00  0.00    +0.004 A 
ATOM     29  C   UNL     1      54.766  10.316  21.428  0.00  0.00    -0.008 A 
ATOM     30  C   UNL     1      54.664  10.280  20.050  0.00  0.00    +0.000 A 
ATOM     31  C   UNL     1      53.509  10.717  19.431  0.00  0.00    +0.000 A 
ENDBRANCH  25  26
ENDBRANCH  24  25
BRANCH  40  41
ATOM     41  O   UNL     1      52.985  16.484  19.208  0.00  0.00    -0.330 OA
BRANCH  41  42
ATOM     42  C   UNL     1      54.184  16.863  19.887  0.00  0.00    +0.202 C 
BRANCH  42  43
ATOM     43  C   UNL     1      54.980  15.630  20.228  0.00  0.00    -0.084 A 
ATOM     44  C   UNL     1      54.865  15.056  21.480  0.00  0.00    +0.023 A 
ATOM     45  C   UNL     1      55.595  13.924  21.793  0.00  0.00    -0.002 A 
ATOM     46  C   UNL     1      56.441  13.367  20.853  0.00  0.00    +0.006 A 
ATOM     47  C   UNL     1      56.556  13.939  19.601  0.00  0.00    +0.000 A 
ATOM     48  C   UNL     1      55.822  15.068  19.286  0.00  0.00    +0.029 A 
ENDBRANCH  42  43
ENDBRANCH  41  42
ENDBRANCH  40  41
TORSDOF 11
ENDMDL
MODEL 9
REMARK VINA RESULT:      -4.7      3.231      9.162
REMARK  Name = ZINC95485997
REMARK  17 active torsions:
REMARK  status: ('A' for Active; 'I' for Inactive)
REMARK    1  A    between atoms: C1_1  and  C2_2
REMARK    2  A    between atoms: C2_2  and  O2_4
REMARK    3  A    between atoms: O2_4  and  C3_5
REMARK    4  A    between atoms: C5_9  and  O6_42
REMARK    5  A    between atoms: C7_12  and  C28_37
REMARK    6  A    between atoms: C8_13  and  O3_15
REMARK    7  A    between atoms: O3_15  and  C9_16
REMARK    8  A    between atoms: C9_16  and  C10_17
REMARK    9  A    between atoms: C17_24  and  C21_30
REMARK   10  A    between atoms: C19_27  and  C20_28
REMARK   11  A    between atoms: C19_27  and  O4_29
REMARK   12  A    between atoms: C21_30  and  C22_31
REMARK   13  A    between atoms: C29_39  and  C30_40
REMARK   14  A    between atoms: C29_39  and  C31_41
REMARK   15  A    between atoms: O6_42  and  C32_43
REMARK   16  A    between atoms: C35_47  and  C38_52
REMARK   17  A    between atoms: N1_50  and  C37_51
REMARK                            x       y       z     vdW  Elec       q    Type
REMARK                         _______ _______ _______ _____ _____    ______ ____
ROOT
ATOM      4  C   UNL     1      47.231  13.990  18.889  0.00  0.00    +0.166 C 
ATOM      5  C   UNL     1      46.717  15.014  19.899  0.00  0.00    -0.032 C 
ATOM      6  C   UNL     1      47.655  16.258  19.723  0.00  0.00    +0.142 C 
ATOM     19  C   UNL     1      48.925  15.691  20.388  0.00  0.00    +0.164 C 
ATOM     20  O   UNL     1      48.469  14.846  21.475  0.00  0.00    -0.325 OA
ATOM     21  C   UNL     1      49.621  14.769  19.391  0.00  0.00    -0.043 C 
ATOM     22  C   UNL     1      49.965  15.458  18.067  0.00  0.00    +0.046 C 
ATOM     23  C   UNL     1      50.886  14.189  20.020  0.00  0.00    +0.061 C 
ATOM     24  C   UNL     1      51.805  15.212  20.652  0.00  0.00    -0.004 C 
ATOM     32  C   UNL     1      51.112  16.241  21.517  0.00  0.00    +0.010 C 
ATOM     33  C   UNL     1      49.802  16.779  20.961  0.00  0.00    +0.161 C 
ATOM     36  C   UNL     1      50.056  17.917  19.980  0.00  0.00    +0.022 C 
ATOM     37  C   UNL     1      47.061  14.619  21.347  0.00  0.00    +0.131 C 
ATOM     38  C   UNL     1      46.690  13.175  21.671  0.00  0.00    +0.051 C 
ATOM     39  C   UNL     1      46.308  15.527  22.335  0.00  0.00    +0.026 C 
ATOM     40  C   UNL     1      48.682  13.594  19.059  0.00  0.00    +0.149 C 
ENDROOT
BRANCH  33  34
ATOM     34  O   UNL     1      49.089  17.352  22.086  0.00  0.00    -0.538 OA
ATOM     35  H   UNL     1      49.500  17.178  22.943  0.00  0.00    +0.364 HD
ENDBRANCH  33  34
BRANCH   4   3
ATOM      3  O   UNL     1      46.394  12.829  18.861  0.00  0.00    -0.332 OA
BRANCH   3   2
ATOM      1  C   UNL     1      46.614  12.252  16.470  0.00  0.00    +0.156 C 
ATOM      2  C   UNL     1      45.789  12.542  17.697  0.00  0.00    +0.450 C 
ATOM     49  O   UNL     1      44.582  12.516  17.634  0.00  0.00    -0.508 OA
ENDBRANCH   3   2
ENDBRANCH   4   3
BRANCH   6   7
ATOM      7  O   UNL     1      47.125  17.410  20.380  0.00  0.00    -0.321 OA
BRANCH   7   8
ATOM      8  C   UNL     1      45.952  17.942  19.762  0.00  0.00    +0.374 C 
ATOM      9  C   UNL     1      44.807  17.945  20.772  0.00  0.00    +0.091 C 
ATOM     10  C   UNL     1      43.624  18.691  20.210  0.00  0.00    +0.043 C 
ATOM     11  C   UNL     1      43.829  19.765  19.416  0.00  0.00    -0.202 C 
ATOM     15  C   UNL     1      45.218  20.178  19.114  0.00  0.00    +0.558 C 
ATOM     16  O   UNL     1      45.448  21.300  18.706  0.00  0.00    -0.496 OA
ATOM     17  N   UNL     1      46.223  19.303  19.301  0.00  0.00    -0.639 N 
ATOM     18  C   UNL     1      47.602  19.718  19.034  0.00  0.00    +0.264 C 
BRANCH  11  12
ATOM     12  C   UNL     1      42.688  20.511  18.857  0.00  0.00    +0.528 C 
ATOM     13  O   UNL     1      42.400  21.613  19.304  0.00  0.00    -0.662 OA
ATOM     14  O   UNL     1      42.029  20.028  17.947  0.00  0.00    -0.691 OA
ENDBRANCH  11  12
ENDBRANCH   7   8
ENDBRANCH   6   7
BRANCH  24  25
ATOM     25  C   UNL     1      52.741  15.860  19.634  0.00  0.00    +0.065 C 
BRANCH  25  26
ATOM     26  C   UNL     1      54.052  15.115  19.612  0.00  0.00    -0.073 A 
ATOM     27  C   UNL     1      55.242  15.814  19.533  0.00  0.00    +0.003 A 
ATOM     28  C   UNL     1      56.443  15.131  19.512  0.00  0.00    +0.004 A 
ATOM     29  C   UNL     1      56.455  13.751  19.571  0.00  0.00    -0.008 A 
ATOM     30  C   UNL     1      55.265  13.052  19.651  0.00  0.00    +0.000 A 
ATOM     31  C   UNL     1      54.064  13.735  19.675  0.00  0.00    +0.000 A 
ENDBRANCH  25  26
ENDBRANCH  24  25
BRANCH  40  41
ATOM     41  O   UNL     1      48.845  12.533  19.988  0.00  0.00    -0.330 OA
BRANCH  41  42
ATOM     42  C   UNL     1      48.933  11.240  19.384  0.00  0.00    +0.202 C 
BRANCH  42  43
ATOM     43  C   UNL     1      50.352  10.988  18.944  0.00  0.00    -0.084 A 
ATOM     44  C   UNL     1      50.725  11.232  17.636  0.00  0.00    +0.023 A 
ATOM     45  C   UNL     1      52.027  11.000  17.232  0.00  0.00    -0.002 A 
ATOM     46  C   UNL     1      52.955  10.523  18.137  0.00  0.00    +0.006 A 
ATOM     47  C   UNL     1      52.584  10.280  19.445  0.00  0.00    +0.000 A 
ATOM     48  C   UNL     1      51.283  10.516  19.851  0.00  0.00    +0.029 A 
ENDBRANCH  42  43
ENDBRANCH  41  42
ENDBRANCH  40  41
TORSDOF 11
ENDMDL
