MODEL 1
REMARK VINA RESULT:      -6.9      0.000      0.000
REMARK  Name = ZINC95486130
REMARK  15 active torsions:
REMARK  status: ('A' for Active; 'I' for Inactive)
REMARK    1  A    between atoms: C1_1  and  O1_2
REMARK    2  A    between atoms: O1_2  and  C2_3
REMARK    3  A    between atoms: C4_5  and  C9_12
REMARK    4  A    between atoms: C6_7  and  O3_10
REMARK    5  A    between atoms: C7_8  and  O2_9
REMARK    6  A    between atoms: O3_10  and  C8_11
REMARK    7  A    between atoms: C13_17  and  O13_41
REMARK    8  A    between atoms: C15_19  and  O7_24
REMARK    9  A    between atoms: C16_20  and  O6_23
REMARK   10  A    between atoms: O7_24  and  C18_25
REMARK   11  A    between atoms: C19_27  and  O12_40
REMARK   12  A    between atoms: C20_29  and  O11_39
REMARK   13  A    between atoms: C21_31  and  O10_38
REMARK   14  A    between atoms: C22_33  and  C23_36
REMARK   15  A    between atoms: C23_36  and  O9_37
REMARK                            x       y       z     vdW  Elec       q    Type
REMARK                         _______ _______ _______ _____ _____    ______ ____
ROOT
ATOM      6  C   UNL     1      46.187  14.173  18.359  0.00  0.00    +0.203 A 
ATOM      7  C   UNL     1      45.775  13.544  19.492  0.00  0.00    -0.137 A 
ATOM      8  C   UNL     1      45.208  14.301  20.544  0.00  0.00    +0.426 A 
ATOM      9  C   UNL     1      45.096  15.756  20.348  0.00  0.00    -0.273 A 
ATOM     10  C   UNL     1      44.548  16.583  21.337  0.00  0.00    +0.237 A 
ATOM     13  C   UNL     1      44.459  17.945  21.117  0.00  0.00    -0.072 A 
ATOM     14  C   UNL     1      44.910  18.489  19.920  0.00  0.00    +0.183 A 
ATOM     31  C   UNL     1      45.455  17.678  18.933  0.00  0.00    +0.046 A 
ATOM     34  C   UNL     1      45.552  16.307  19.138  0.00  0.00    +0.175 A 
ATOM     35  O   UNL     1      44.828  13.769  21.575  0.00  0.00    -0.450 OA
ATOM     36  O   UNL     1      46.084  15.501  18.193  0.00  0.00    -0.206 OA
ENDROOT
BRANCH   6   5
ATOM      3  C   UNL     1      46.638  11.513  15.745  0.00  0.00    +0.140 A 
ATOM      4  C   UNL     1      46.083  12.266  16.762  0.00  0.00    -0.042 A 
ATOM      5  C   UNL     1      46.776  13.367  17.273  0.00  0.00    -0.001 A 
ATOM     37  C   UNL     1      48.028  13.704  16.752  0.00  0.00    -0.047 A 
ATOM     38  C   UNL     1      48.578  12.947  15.734  0.00  0.00    +0.142 A 
ATOM     41  C   UNL     1      47.888  11.847  15.232  0.00  0.00    +0.068 A 
BRANCH   3   2
ATOM      1  C   UNL     1      44.545  10.431  15.417  0.00  0.00    +0.250 C 
ATOM      2  O   UNL     1      45.964  10.441  15.248  0.00  0.00    -0.299 OA
ENDBRANCH   3   2
BRANCH  38  39
ATOM     39  O   UNL     1      49.797  13.274  15.228  0.00  0.00    -0.298 OA
ATOM     40  C   UNL     1      50.790  13.713  16.156  0.00  0.00    +0.249 C 
ENDBRANCH  38  39
BRANCH  41  42
ATOM     42  O   UNL     1      48.434  11.101  14.235  0.00  0.00    -0.469 OA
ATOM     43  H   UNL     1      48.001  11.213  13.377  0.00  0.00    +0.388 HD
ENDBRANCH  41  42
ENDBRANCH   6   5
BRANCH  10  11
ATOM     11  O   UNL     1      44.106  16.050  22.505  0.00  0.00    -0.467 OA
ATOM     12  H   UNL     1      44.636  16.297  23.276  0.00  0.00    +0.402 HD
ENDBRANCH  10  11
BRANCH  31  32
ATOM     32  O   UNL     1      45.891  18.224  17.765  0.00  0.00    -0.465 OA
ATOM     33  H   UNL     1      46.516  18.953  17.881  0.00  0.00    +0.386 HD
ENDBRANCH  31  32
BRANCH  14  15
ATOM     15  O   UNL     1      44.817  19.830  19.713  0.00  0.00    -0.276 OA
BRANCH  15  16
ATOM     16  C   UNL     1      43.514  20.409  19.789  0.00  0.00    +0.304 C 
ATOM     17  C   UNL     1      43.529  21.792  19.133  0.00  0.00    +0.152 C 
ATOM     20  C   UNL     1      42.115  22.380  19.166  0.00  0.00    +0.166 C 
ATOM     23  C   UNL     1      41.157  21.415  18.462  0.00  0.00    +0.172 C 
ATOM     26  C   UNL     1      41.232  20.046  19.144  0.00  0.00    +0.194 C 
ATOM     30  O   UNL     1      42.579  19.570  19.107  0.00  0.00    -0.370 OA
BRANCH  17  18
ATOM     18  O   UNL     1      44.421  22.650  19.850  0.00  0.00    -0.552 OA
ATOM     19  H   UNL     1      44.138  23.574  19.880  0.00  0.00    +0.396 HD
ENDBRANCH  17  18
BRANCH  20  21
ATOM     21  O   UNL     1      42.107  23.641  18.493  0.00  0.00    -0.552 OA
ATOM     22  H   UNL     1      41.227  23.932  18.215  0.00  0.00    +0.397 HD
ENDBRANCH  20  21
BRANCH  23  24
ATOM     24  O   UNL     1      39.823  21.920  18.548  0.00  0.00    -0.548 OA
ATOM     25  H   UNL     1      39.139  21.245  18.443  0.00  0.00    +0.396 HD
ENDBRANCH  23  24
BRANCH  26  27
ATOM     27  C   UNL     1      40.322  19.060  18.409  0.00  0.00    +0.227 C 
BRANCH  27  28
ATOM     28  O   UNL     1      40.200  19.452  17.040  0.00  0.00    -0.564 OA
ATOM     29  H   UNL     1      40.254  18.717  16.414  0.00  0.00    +0.387 HD
ENDBRANCH  27  28
ENDBRANCH  26  27
ENDBRANCH  15  16
ENDBRANCH  14  15
TORSDOF 13
ENDMDL
MODEL 2
REMARK VINA RESULT:      -6.7      0.121      2.173
REMARK  Name = ZINC95486130
REMARK  15 active torsions:
REMARK  status: ('A' for Active; 'I' for Inactive)
REMARK    1  A    between atoms: C1_1  and  O1_2
REMARK    2  A    between atoms: O1_2  and  C2_3
REMARK    3  A    between atoms: C4_5  and  C9_12
REMARK    4  A    between atoms: C6_7  and  O3_10
REMARK    5  A    between atoms: C7_8  and  O2_9
REMARK    6  A    between atoms: O3_10  and  C8_11
REMARK    7  A    between atoms: C13_17  and  O13_41
REMARK    8  A    between atoms: C15_19  and  O7_24
REMARK    9  A    between atoms: C16_20  and  O6_23
REMARK   10  A    between atoms: O7_24  and  C18_25
REMARK   11  A    between atoms: C19_27  and  O12_40
REMARK   12  A    between atoms: C20_29  and  O11_39
REMARK   13  A    between atoms: C21_31  and  O10_38
REMARK   14  A    between atoms: C22_33  and  C23_36
REMARK   15  A    between atoms: C23_36  and  O9_37
REMARK                            x       y       z     vdW  Elec       q    Type
REMARK                         _______ _______ _______ _____ _____    ______ ____
ROOT
ATOM      6  C   UNL     1      46.264  14.108  18.394  0.00  0.00    +0.203 A 
ATOM      7  C   UNL     1      45.847  13.494  19.534  0.00  0.00    -0.137 A 
ATOM      8  C   UNL     1      45.275  14.266  20.572  0.00  0.00    +0.426 A 
ATOM      9  C   UNL     1      45.163  15.718  20.356  0.00  0.00    -0.273 A 
ATOM     10  C   UNL     1      44.610  16.558  21.331  0.00  0.00    +0.237 A 
ATOM     13  C   UNL     1      44.522  17.917  21.091  0.00  0.00    -0.072 A 
ATOM     14  C   UNL     1      44.979  18.445  19.890  0.00  0.00    +0.183 A 
ATOM     31  C   UNL     1      45.529  17.620  18.917  0.00  0.00    +0.046 A 
ATOM     34  C   UNL     1      45.625  16.253  19.141  0.00  0.00    +0.175 A 
ATOM     35  O   UNL     1      44.890  13.747  21.609  0.00  0.00    -0.450 OA
ATOM     36  O   UNL     1      46.163  15.434  18.210  0.00  0.00    -0.206 OA
ENDROOT
BRANCH   6   5
ATOM      3  C   UNL     1      48.655  12.861  15.778  0.00  0.00    +0.140 A 
ATOM      4  C   UNL     1      48.102  13.632  16.783  0.00  0.00    -0.042 A 
ATOM      5  C   UNL     1      46.859  13.288  17.322  0.00  0.00    -0.001 A 
ATOM     37  C   UNL     1      46.179  12.164  16.843  0.00  0.00    -0.047 A 
ATOM     38  C   UNL     1      46.739  11.397  15.838  0.00  0.00    +0.142 A 
ATOM     41  C   UNL     1      47.974  11.745  15.299  0.00  0.00    +0.068 A 
BRANCH   3   2
ATOM      1  C   UNL     1      50.725  13.997  16.066  0.00  0.00    +0.250 C 
ATOM      2  O   UNL     1      49.864  13.196  15.254  0.00  0.00    -0.299 OA
ENDBRANCH   3   2
BRANCH  38  39
ATOM     39  O   UNL     1      46.078  10.303  15.372  0.00  0.00    -0.298 OA
ATOM     40  C   UNL     1      44.654  10.389  15.293  0.00  0.00    +0.249 C 
ENDBRANCH  38  39
BRANCH  41  42
ATOM     42  O   UNL     1      48.519  10.992  14.307  0.00  0.00    -0.469 OA
ATOM     43  H   UNL     1      49.207  10.383  14.608  0.00  0.00    +0.388 HD
ENDBRANCH  41  42
ENDBRANCH   6   5
BRANCH  10  11
ATOM     11  O   UNL     1      44.163  16.040  22.504  0.00  0.00    -0.467 OA
ATOM     12  H   UNL     1      43.403  15.450  22.409  0.00  0.00    +0.402 HD
ENDBRANCH  10  11
BRANCH  31  32
ATOM     32  O   UNL     1      45.971  18.150  17.744  0.00  0.00    -0.465 OA
ATOM     33  H   UNL     1      46.374  17.504  17.147  0.00  0.00    +0.386 HD
ENDBRANCH  31  32
BRANCH  14  15
ATOM     15  O   UNL     1      44.887  19.782  19.664  0.00  0.00    -0.276 OA
BRANCH  15  16
ATOM     16  C   UNL     1      43.591  20.372  19.782  0.00  0.00    +0.304 C 
ATOM     17  C   UNL     1      43.602  21.763  19.143  0.00  0.00    +0.152 C 
ATOM     20  C   UNL     1      42.195  22.363  19.221  0.00  0.00    +0.166 C 
ATOM     23  C   UNL     1      41.209  21.415  18.532  0.00  0.00    +0.172 C 
ATOM     26  C   UNL     1      41.290  20.038  19.195  0.00  0.00    +0.194 C 
ATOM     30  O   UNL     1      42.631  19.550  19.116  0.00  0.00    -0.370 OA
BRANCH  17  18
ATOM     18  O   UNL     1      44.521  22.604  19.845  0.00  0.00    -0.552 OA
ATOM     19  H   UNL     1      44.179  22.945  20.684  0.00  0.00    +0.396 HD
ENDBRANCH  17  18
BRANCH  20  21
ATOM     21  O   UNL     1      42.180  23.633  18.563  0.00  0.00    -0.552 OA
ATOM     22  H   UNL     1      41.609  24.288  18.986  0.00  0.00    +0.397 HD
ENDBRANCH  20  21
BRANCH  23  24
ATOM     24  O   UNL     1      39.883  21.931  18.660  0.00  0.00    -0.548 OA
ATOM     25  H   UNL     1      39.342  21.469  19.315  0.00  0.00    +0.396 HD
ENDBRANCH  23  24
BRANCH  26  27
ATOM     27  C   UNL     1      40.351  19.069  18.474  0.00  0.00    +0.227 C 
BRANCH  27  28
ATOM     28  O   UNL     1      40.215  19.465  17.107  0.00  0.00    -0.564 OA
ATOM     29  H   UNL     1      41.029  19.808  16.714  0.00  0.00    +0.387 HD
ENDBRANCH  27  28
ENDBRANCH  26  27
ENDBRANCH  15  16
ENDBRANCH  14  15
TORSDOF 13
ENDMDL
MODEL 3
REMARK VINA RESULT:      -6.6      3.054     10.364
REMARK  Name = ZINC95486130
REMARK  15 active torsions:
REMARK  status: ('A' for Active; 'I' for Inactive)
REMARK    1  A    between atoms: C1_1  and  O1_2
REMARK    2  A    between atoms: O1_2  and  C2_3
REMARK    3  A    between atoms: C4_5  and  C9_12
REMARK    4  A    between atoms: C6_7  and  O3_10
REMARK    5  A    between atoms: C7_8  and  O2_9
REMARK    6  A    between atoms: O3_10  and  C8_11
REMARK    7  A    between atoms: C13_17  and  O13_41
REMARK    8  A    between atoms: C15_19  and  O7_24
REMARK    9  A    between atoms: C16_20  and  O6_23
REMARK   10  A    between atoms: O7_24  and  C18_25
REMARK   11  A    between atoms: C19_27  and  O12_40
REMARK   12  A    between atoms: C20_29  and  O11_39
REMARK   13  A    between atoms: C21_31  and  O10_38
REMARK   14  A    between atoms: C22_33  and  C23_36
REMARK   15  A    between atoms: C23_36  and  O9_37
REMARK                            x       y       z     vdW  Elec       q    Type
REMARK                         _______ _______ _______ _____ _____    ______ ____
ROOT
ATOM      6  C   UNL     1      46.986  19.511  18.711  0.00  0.00    +0.203 A 
ATOM      7  C   UNL     1      48.171  20.070  19.078  0.00  0.00    -0.137 A 
ATOM      8  C   UNL     1      49.373  19.356  18.865  0.00  0.00    +0.426 A 
ATOM      9  C   UNL     1      49.272  18.024  18.247  0.00  0.00    -0.273 A 
ATOM     10  C   UNL     1      50.411  17.248  18.000  0.00  0.00    +0.237 A 
ATOM     13  C   UNL     1      50.276  16.001  17.418  0.00  0.00    -0.072 A 
ATOM     14  C   UNL     1      49.015  15.522  17.079  0.00  0.00    +0.183 A 
ATOM     31  C   UNL     1      47.880  16.284  17.320  0.00  0.00    +0.046 A 
ATOM     34  C   UNL     1      47.998  17.539  17.904  0.00  0.00    +0.175 A 
ATOM     35  O   UNL     1      50.454  19.828  19.183  0.00  0.00    -0.450 OA
ATOM     36  O   UNL     1      46.904  18.293  18.153  0.00  0.00    -0.206 OA
ENDROOT
BRANCH   6   5
ATOM      3  C   UNL     1      43.338  20.354  19.018  0.00  0.00    +0.140 A 
ATOM      4  C   UNL     1      44.502  19.640  18.802  0.00  0.00    -0.042 A 
ATOM      5  C   UNL     1      45.742  20.270  18.941  0.00  0.00    -0.001 A 
ATOM     37  C   UNL     1      45.802  21.619  19.300  0.00  0.00    -0.047 A 
ATOM     38  C   UNL     1      44.634  22.328  19.515  0.00  0.00    +0.142 A 
ATOM     41  C   UNL     1      43.400  21.700  19.369  0.00  0.00    +0.068 A 
BRANCH   3   2
ATOM      1  C   UNL     1      41.576  19.134  20.050  0.00  0.00    +0.250 C 
ATOM      2  O   UNL     1      42.131  19.743  18.882  0.00  0.00    -0.299 OA
ENDBRANCH   3   2
BRANCH  38  39
ATOM     39  O   UNL     1      44.691  23.641  19.864  0.00  0.00    -0.298 OA
ATOM     40  C   UNL     1      44.614  24.599  18.807  0.00  0.00    +0.249 C 
ENDBRANCH  38  39
BRANCH  41  42
ATOM     42  O   UNL     1      42.253  22.401  19.576  0.00  0.00    -0.469 OA
ATOM     43  H   UNL     1      41.450  21.863  19.537  0.00  0.00    +0.388 HD
ENDBRANCH  41  42
ENDBRANCH   6   5
BRANCH  10  11
ATOM     11  O   UNL     1      51.642  17.718  18.330  0.00  0.00    -0.467 OA
ATOM     12  H   UNL     1      51.786  17.810  19.281  0.00  0.00    +0.402 HD
ENDBRANCH  10  11
BRANCH  31  32
ATOM     32  O   UNL     1      46.651  15.804  16.983  0.00  0.00    -0.465 OA
ATOM     33  H   UNL     1      46.015  16.489  16.737  0.00  0.00    +0.386 HD
ENDBRANCH  31  32
BRANCH  14  15
ATOM     15  O   UNL     1      48.893  14.295  16.506  0.00  0.00    -0.276 OA
BRANCH  15  16
ATOM     16  C   UNL     1      50.093  13.672  16.046  0.00  0.00    +0.304 C 
ATOM     17  C   UNL     1      50.226  12.286  16.681  0.00  0.00    +0.152 C 
ATOM     20  C   UNL     1      51.483  11.601  16.137  0.00  0.00    +0.166 C 
ATOM     23  C   UNL     1      51.393  11.534  14.609  0.00  0.00    +0.172 C 
ATOM     26  C   UNL     1      51.217  12.950  14.054  0.00  0.00    +0.194 C 
ATOM     30  O   UNL     1      50.047  13.541  14.624  0.00  0.00    -0.370 OA
BRANCH  17  18
ATOM     18  O   UNL     1      50.330  12.419  18.101  0.00  0.00    -0.552 OA
ATOM     19  H   UNL     1      51.240  12.463  18.426  0.00  0.00    +0.396 HD
ENDBRANCH  17  18
BRANCH  20  21
ATOM     21  O   UNL     1      51.576  10.278  16.671  0.00  0.00    -0.552 OA
ATOM     22  H   UNL     1      52.125  10.212  17.464  0.00  0.00    +0.397 HD
ENDBRANCH  20  21
BRANCH  23  24
ATOM     24  O   UNL     1      52.593  10.961  14.086  0.00  0.00    -0.548 OA
ATOM     25  H   UNL     1      52.627  10.932  13.120  0.00  0.00    +0.396 HD
ENDBRANCH  23  24
BRANCH  26  27
ATOM     27  C   UNL     1      51.066  12.886  12.532  0.00  0.00    +0.227 C 
BRANCH  27  28
ATOM     28  O   UNL     1      52.104  13.654  11.918  0.00  0.00    -0.564 OA
ATOM     29  H   UNL     1      52.574  14.239  12.528  0.00  0.00    +0.387 HD
ENDBRANCH  27  28
ENDBRANCH  26  27
ENDBRANCH  15  16
ENDBRANCH  14  15
TORSDOF 13
ENDMDL
MODEL 4
REMARK VINA RESULT:      -6.6      3.147     10.576
REMARK  Name = ZINC95486130
REMARK  15 active torsions:
REMARK  status: ('A' for Active; 'I' for Inactive)
REMARK    1  A    between atoms: C1_1  and  O1_2
REMARK    2  A    between atoms: O1_2  and  C2_3
REMARK    3  A    between atoms: C4_5  and  C9_12
REMARK    4  A    between atoms: C6_7  and  O3_10
REMARK    5  A    between atoms: C7_8  and  O2_9
REMARK    6  A    between atoms: O3_10  and  C8_11
REMARK    7  A    between atoms: C13_17  and  O13_41
REMARK    8  A    between atoms: C15_19  and  O7_24
REMARK    9  A    between atoms: C16_20  and  O6_23
REMARK   10  A    between atoms: O7_24  and  C18_25
REMARK   11  A    between atoms: C19_27  and  O12_40
REMARK   12  A    between atoms: C20_29  and  O11_39
REMARK   13  A    between atoms: C21_31  and  O10_38
REMARK   14  A    between atoms: C22_33  and  C23_36
REMARK   15  A    between atoms: C23_36  and  O9_37
REMARK                            x       y       z     vdW  Elec       q    Type
REMARK                         _______ _______ _______ _____ _____    ______ ____
ROOT
ATOM      6  C   UNL     1      47.051  19.606  18.755  0.00  0.00    +0.203 A 
ATOM      7  C   UNL     1      48.220  20.217  19.089  0.00  0.00    -0.137 A 
ATOM      8  C   UNL     1      49.444  19.540  18.883  0.00  0.00    +0.426 A 
ATOM      9  C   UNL     1      49.383  18.185  18.309  0.00  0.00    -0.273 A 
ATOM     10  C   UNL     1      50.545  17.442  18.072  0.00  0.00    +0.237 A 
ATOM     13  C   UNL     1      50.447  16.173  17.532  0.00  0.00    -0.072 A 
ATOM     14  C   UNL     1      49.201  15.640  17.225  0.00  0.00    +0.183 A 
ATOM     31  C   UNL     1      48.042  16.369  17.457  0.00  0.00    +0.046 A 
ATOM     34  C   UNL     1      48.123  17.645  17.999  0.00  0.00    +0.175 A 
ATOM     35  O   UNL     1      50.512  20.059  19.171  0.00  0.00    -0.450 OA
ATOM     36  O   UNL     1      47.006  18.368  18.238  0.00  0.00    -0.206 OA
ENDROOT
BRANCH   6   5
ATOM      3  C   UNL     1      44.609  22.353  19.534  0.00  0.00    +0.140 A 
ATOM      4  C   UNL     1      45.799  21.681  19.326  0.00  0.00    -0.042 A 
ATOM      5  C   UNL     1      45.784  20.327  18.978  0.00  0.00    -0.001 A 
ATOM     37  C   UNL     1      44.565  19.657  18.840  0.00  0.00    -0.047 A 
ATOM     38  C   UNL     1      43.378  20.336  19.050  0.00  0.00    +0.142 A 
ATOM     41  C   UNL     1      43.397  21.682  19.402  0.00  0.00    +0.068 A 
BRANCH   3   2
ATOM      1  C   UNL     1      44.607  24.616  18.802  0.00  0.00    +0.250 C 
ATOM      2  O   UNL     1      44.624  23.670  19.873  0.00  0.00    -0.299 OA
ENDBRANCH   3   2
BRANCH  38  39
ATOM     39  O   UNL     1      42.192  19.684  18.916  0.00  0.00    -0.298 OA
ATOM     40  C   UNL     1      41.598  19.164  20.107  0.00  0.00    +0.249 C 
ENDBRANCH  38  39
BRANCH  41  42
ATOM     42  O   UNL     1      42.228  22.345  19.612  0.00  0.00    -0.469 OA
ATOM     43  H   UNL     1      41.867  22.768  18.821  0.00  0.00    +0.388 HD
ENDBRANCH  41  42
ENDBRANCH   6   5
BRANCH  10  11
ATOM     11  O   UNL     1      51.763  17.966  18.370  0.00  0.00    -0.467 OA
ATOM     12  H   UNL     1      51.915  18.093  19.316  0.00  0.00    +0.402 HD
ENDBRANCH  10  11
BRANCH  31  32
ATOM     32  O   UNL     1      46.828  15.835  17.151  0.00  0.00    -0.465 OA
ATOM     33  H   UNL     1      46.330  15.524  17.920  0.00  0.00    +0.386 HD
ENDBRANCH  31  32
BRANCH  14  15
ATOM     15  O   UNL     1      49.116  14.391  16.694  0.00  0.00    -0.276 OA
BRANCH  15  16
ATOM     16  C   UNL     1      50.325  13.811  16.204  0.00  0.00    +0.304 C 
ATOM     17  C   UNL     1      50.552  12.455  16.878  0.00  0.00    +0.152 C 
ATOM     20  C   UNL     1      51.819  11.814  16.304  0.00  0.00    +0.166 C 
ATOM     23  C   UNL     1      51.670  11.689  14.785  0.00  0.00    +0.172 C 
ATOM     26  C   UNL     1      51.401  13.074  14.191  0.00  0.00    +0.194 C 
ATOM     30  O   UNL     1      50.228  13.628  14.790  0.00  0.00    -0.370 OA
BRANCH  17  18
ATOM     18  O   UNL     1      50.707  12.643  18.287  0.00  0.00    -0.552 OA
ATOM     19  H   UNL     1      51.401  12.097  18.682  0.00  0.00    +0.396 HD
ENDBRANCH  17  18
BRANCH  20  21
ATOM     21  O   UNL     1      51.999  10.516  16.877  0.00  0.00    -0.552 OA
ATOM     22  H   UNL     1      51.502   9.817  16.429  0.00  0.00    +0.397 HD
ENDBRANCH  20  21
BRANCH  23  24
ATOM     24  O   UNL     1      52.874  11.156  14.230  0.00  0.00    -0.548 OA
ATOM     25  H   UNL     1      52.870  11.095  13.265  0.00  0.00    +0.396 HD
ENDBRANCH  23  24
BRANCH  26  27
ATOM     27  C   UNL     1      51.192  12.949  12.680  0.00  0.00    +0.227 C 
BRANCH  27  28
ATOM     28  O   UNL     1      52.182  13.722  11.996  0.00  0.00    -0.564 OA
ATOM     29  H   UNL     1      52.659  14.342  12.565  0.00  0.00    +0.387 HD
ENDBRANCH  27  28
ENDBRANCH  26  27
ENDBRANCH  15  16
ENDBRANCH  14  15
TORSDOF 13
ENDMDL
MODEL 5
REMARK VINA RESULT:      -6.4      2.317      3.544
REMARK  Name = ZINC95486130
REMARK  15 active torsions:
REMARK  status: ('A' for Active; 'I' for Inactive)
REMARK    1  A    between atoms: C1_1  and  O1_2
REMARK    2  A    between atoms: O1_2  and  C2_3
REMARK    3  A    between atoms: C4_5  and  C9_12
REMARK    4  A    between atoms: C6_7  and  O3_10
REMARK    5  A    between atoms: C7_8  and  O2_9
REMARK    6  A    between atoms: O3_10  and  C8_11
REMARK    7  A    between atoms: C13_17  and  O13_41
REMARK    8  A    between atoms: C15_19  and  O7_24
REMARK    9  A    between atoms: C16_20  and  O6_23
REMARK   10  A    between atoms: O7_24  and  C18_25
REMARK   11  A    between atoms: C19_27  and  O12_40
REMARK   12  A    between atoms: C20_29  and  O11_39
REMARK   13  A    between atoms: C21_31  and  O10_38
REMARK   14  A    between atoms: C22_33  and  C23_36
REMARK   15  A    between atoms: C23_36  and  O9_37
REMARK                            x       y       z     vdW  Elec       q    Type
REMARK                         _______ _______ _______ _____ _____    ______ ____
ROOT
ATOM      6  C   UNL     1      48.799  13.719  17.586  0.00  0.00    +0.203 A 
ATOM      7  C   UNL     1      48.318  13.042  18.663  0.00  0.00    -0.137 A 
ATOM      8  C   UNL     1      47.284  13.612  19.441  0.00  0.00    +0.426 A 
ATOM      9  C   UNL     1      46.778  14.933  19.033  0.00  0.00    -0.273 A 
ATOM     10  C   UNL     1      45.756  15.573  19.745  0.00  0.00    +0.237 A 
ATOM     13  C   UNL     1      45.307  16.813  19.332  0.00  0.00    -0.072 A 
ATOM     14  C   UNL     1      45.867  17.421  18.214  0.00  0.00    +0.183 A 
ATOM     31  C   UNL     1      46.881  16.795  17.500  0.00  0.00    +0.046 A 
ATOM     34  C   UNL     1      47.343  15.548  17.903  0.00  0.00    +0.175 A 
ATOM     35  O   UNL     1      46.829  13.032  20.414  0.00  0.00    -0.450 OA
ATOM     36  O   UNL     1      48.334  14.926  17.226  0.00  0.00    -0.206 OA
ENDROOT
BRANCH   6   5
ATOM      3  C   UNL     1      51.682  11.529  16.583  0.00  0.00    +0.140 A 
ATOM      4  C   UNL     1      50.671  12.098  17.336  0.00  0.00    -0.042 A 
ATOM      5  C   UNL     1      49.878  13.108  16.786  0.00  0.00    -0.001 A 
ATOM     37  C   UNL     1      50.108  13.540  15.477  0.00  0.00    -0.047 A 
ATOM     38  C   UNL     1      51.120  12.967  14.730  0.00  0.00    +0.142 A 
ATOM     41  C   UNL     1      51.913  11.964  15.282  0.00  0.00    +0.068 A 
BRANCH   3   2
ATOM      1  C   UNL     1      53.471  10.946  18.039  0.00  0.00    +0.250 C 
ATOM      2  O   UNL     1      52.455  10.545  17.118  0.00  0.00    -0.299 OA
ENDBRANCH   3   2
BRANCH  38  39
ATOM     39  O   UNL     1      51.344  13.387  13.456  0.00  0.00    -0.298 OA
ATOM     40  C   UNL     1      50.383  13.008  12.468  0.00  0.00    +0.249 C 
ENDBRANCH  38  39
BRANCH  41  42
ATOM     42  O   UNL     1      52.911  11.406  14.546  0.00  0.00    -0.469 OA
ATOM     43  H   UNL     1      53.517  10.854  15.060  0.00  0.00    +0.388 HD
ENDBRANCH  41  42
ENDBRANCH   6   5
BRANCH  10  11
ATOM     11  O   UNL     1      45.208  14.977  20.837  0.00  0.00    -0.467 OA
ATOM     12  H   UNL     1      45.834  14.827  21.558  0.00  0.00    +0.402 HD
ENDBRANCH  10  11
BRANCH  31  32
ATOM     32  O   UNL     1      47.419  17.400  16.407  0.00  0.00    -0.465 OA
ATOM     33  H   UNL     1      48.080  16.865  15.946  0.00  0.00    +0.386 HD
ENDBRANCH  31  32
BRANCH  14  15
ATOM     15  O   UNL     1      45.417  18.640  17.815  0.00  0.00    -0.276 OA
BRANCH  15  16
ATOM     16  C   UNL     1      44.918  19.511  18.830  0.00  0.00    +0.304 C 
ATOM     17  C   UNL     1      45.901  20.665  19.044  0.00  0.00    +0.152 C 
ATOM     20  C   UNL     1      45.330  21.626  20.091  0.00  0.00    +0.166 C 
ATOM     23  C   UNL     1      43.955  22.113  19.624  0.00  0.00    +0.172 C 
ATOM     26  C   UNL     1      43.046  20.904  19.389  0.00  0.00    +0.194 C 
ATOM     30  O   UNL     1      43.650  20.035  18.428  0.00  0.00    -0.370 OA
BRANCH  17  18
ATOM     18  O   UNL     1      47.153  20.147  19.502  0.00  0.00    -0.552 OA
ATOM     19  H   UNL     1      47.805  20.017  18.799  0.00  0.00    +0.396 HD
ENDBRANCH  17  18
BRANCH  20  21
ATOM     21  O   UNL     1      46.208  22.743  20.244  0.00  0.00    -0.552 OA
ATOM     22  H   UNL     1      46.521  22.876  21.149  0.00  0.00    +0.397 HD
ENDBRANCH  20  21
BRANCH  23  24
ATOM     24  O   UNL     1      43.382  22.955  20.626  0.00  0.00    -0.548 OA
ATOM     25  H   UNL     1      44.013  23.261  21.291  0.00  0.00    +0.396 HD
ENDBRANCH  23  24
BRANCH  26  27
ATOM     27  C   UNL     1      41.689  21.379  18.865  0.00  0.00    +0.227 C 
BRANCH  27  28
ATOM     28  O   UNL     1      41.792  22.742  18.444  0.00  0.00    -0.564 OA
ATOM     29  H   UNL     1      42.075  22.849  17.525  0.00  0.00    +0.387 HD
ENDBRANCH  27  28
ENDBRANCH  26  27
ENDBRANCH  15  16
ENDBRANCH  14  15
TORSDOF 13
ENDMDL
MODEL 6
REMARK VINA RESULT:      -6.4      2.190      3.323
REMARK  Name = ZINC95486130
REMARK  15 active torsions:
REMARK  status: ('A' for Active; 'I' for Inactive)
REMARK    1  A    between atoms: C1_1  and  O1_2
REMARK    2  A    between atoms: O1_2  and  C2_3
REMARK    3  A    between atoms: C4_5  and  C9_12
REMARK    4  A    between atoms: C6_7  and  O3_10
REMARK    5  A    between atoms: C7_8  and  O2_9
REMARK    6  A    between atoms: O3_10  and  C8_11
REMARK    7  A    between atoms: C13_17  and  O13_41
REMARK    8  A    between atoms: C15_19  and  O7_24
REMARK    9  A    between atoms: C16_20  and  O6_23
REMARK   10  A    between atoms: O7_24  and  C18_25
REMARK   11  A    between atoms: C19_27  and  O12_40
REMARK   12  A    between atoms: C20_29  and  O11_39
REMARK   13  A    between atoms: C21_31  and  O10_38
REMARK   14  A    between atoms: C22_33  and  C23_36
REMARK   15  A    between atoms: C23_36  and  O9_37
REMARK                            x       y       z     vdW  Elec       q    Type
REMARK                         _______ _______ _______ _____ _____    ______ ____
ROOT
ATOM      6  C   UNL     1      48.506  13.546  17.253  0.00  0.00    +0.203 A 
ATOM      7  C   UNL     1      48.002  12.870  18.320  0.00  0.00    -0.137 A 
ATOM      8  C   UNL     1      47.038  13.492  19.148  0.00  0.00    +0.426 A 
ATOM      9  C   UNL     1      46.629  14.863  18.801  0.00  0.00    -0.273 A 
ATOM     10  C   UNL     1      45.682  15.556  19.565  0.00  0.00    +0.237 A 
ATOM     13  C   UNL     1      45.323  16.842  19.208  0.00  0.00    -0.072 A 
ATOM     14  C   UNL     1      45.900  17.444  18.095  0.00  0.00    +0.183 A 
ATOM     31  C   UNL     1      46.840  16.765  17.330  0.00  0.00    +0.046 A 
ATOM     34  C   UNL     1      47.212  15.472  17.676  0.00  0.00    +0.175 A 
ATOM     35  O   UNL     1      46.565  12.915  20.114  0.00  0.00    -0.450 OA
ATOM     36  O   UNL     1      48.130  14.798  16.948  0.00  0.00    -0.206 OA
ENDROOT
BRANCH   6   5
ATOM      3  C   UNL     1      50.573  12.609  14.259  0.00  0.00    +0.140 A 
ATOM      4  C   UNL     1      49.632  13.235  15.054  0.00  0.00    -0.042 A 
ATOM      5  C   UNL     1      49.510  12.881  16.401  0.00  0.00    -0.001 A 
ATOM     37  C   UNL     1      50.342  11.895  16.940  0.00  0.00    -0.047 A 
ATOM     38  C   UNL     1      51.282  11.273  16.139  0.00  0.00    +0.142 A 
ATOM     41  C   UNL     1      51.397  11.624  14.796  0.00  0.00    +0.068 A 
BRANCH   3   2
ATOM      1  C   UNL     1      49.481  13.204  12.231  0.00  0.00    +0.250 C 
ATOM      2  O   UNL     1      50.692  12.953  12.949  0.00  0.00    -0.299 OA
ENDBRANCH   3   2
BRANCH  38  39
ATOM     39  O   UNL     1      52.092  10.315  16.663  0.00  0.00    -0.298 OA
ATOM     40  C   UNL     1      53.124  10.749  17.550  0.00  0.00    +0.249 C 
ENDBRANCH  38  39
BRANCH  41  42
ATOM     42  O   UNL     1      52.319  11.007  14.010  0.00  0.00    -0.469 OA
ATOM     43  H   UNL     1      52.666  10.185  14.383  0.00  0.00    +0.388 HD
ENDBRANCH  41  42
ENDBRANCH   6   5
BRANCH  10  11
ATOM     11  O   UNL     1      45.119  14.966  20.651  0.00  0.00    -0.467 OA
ATOM     12  H   UNL     1      45.734  14.817  21.382  0.00  0.00    +0.402 HD
ENDBRANCH  10  11
BRANCH  31  32
ATOM     32  O   UNL     1      47.396  17.366  16.242  0.00  0.00    -0.465 OA
ATOM     33  H   UNL     1      46.843  17.331  15.449  0.00  0.00    +0.386 HD
ENDBRANCH  31  32
BRANCH  14  15
ATOM     15  O   UNL     1      45.539  18.708  17.751  0.00  0.00    -0.276 OA
BRANCH  15  16
ATOM     16  C   UNL     1      45.030  19.543  18.793  0.00  0.00    +0.304 C 
ATOM     17  C   UNL     1      45.993  20.710  19.029  0.00  0.00    +0.152 C 
ATOM     20  C   UNL     1      45.410  21.632  20.105  0.00  0.00    +0.166 C 
ATOM     23  C   UNL     1      44.023  22.104  19.660  0.00  0.00    +0.172 C 
ATOM     26  C   UNL     1      43.136  20.884  19.400  0.00  0.00    +0.194 C 
ATOM     30  O   UNL     1      43.750  20.052  18.413  0.00  0.00    -0.370 OA
BRANCH  17  18
ATOM     18  O   UNL     1      47.257  20.205  19.464  0.00  0.00    -0.552 OA
ATOM     19  H   UNL     1      47.994  20.435  18.881  0.00  0.00    +0.396 HD
ENDBRANCH  17  18
BRANCH  20  21
ATOM     21  O   UNL     1      46.268  22.762  20.281  0.00  0.00    -0.552 OA
ATOM     22  H   UNL     1      47.010  22.793  19.661  0.00  0.00    +0.397 HD
ENDBRANCH  20  21
BRANCH  23  24
ATOM     24  O   UNL     1      43.441  22.909  20.687  0.00  0.00    -0.548 OA
ATOM     25  H   UNL     1      44.042  23.570  21.057  0.00  0.00    +0.396 HD
ENDBRANCH  23  24
BRANCH  26  27
ATOM     27  C   UNL     1      41.767  21.346  18.898  0.00  0.00    +0.227 C 
BRANCH  27  28
ATOM     28  O   UNL     1      41.839  22.720  18.511  0.00  0.00    -0.564 OA
ATOM     29  H   UNL     1      41.486  22.900  17.629  0.00  0.00    +0.387 HD
ENDBRANCH  27  28
ENDBRANCH  26  27
ENDBRANCH  15  16
ENDBRANCH  14  15
TORSDOF 13
ENDMDL
MODEL 7
REMARK VINA RESULT:      -6.2      2.943      4.512
REMARK  Name = ZINC95486130
REMARK  15 active torsions:
REMARK  status: ('A' for Active; 'I' for Inactive)
REMARK    1  A    between atoms: C1_1  and  O1_2
REMARK    2  A    between atoms: O1_2  and  C2_3
REMARK    3  A    between atoms: C4_5  and  C9_12
REMARK    4  A    between atoms: C6_7  and  O3_10
REMARK    5  A    between atoms: C7_8  and  O2_9
REMARK    6  A    between atoms: O3_10  and  C8_11
REMARK    7  A    between atoms: C13_17  and  O13_41
REMARK    8  A    between atoms: C15_19  and  O7_24
REMARK    9  A    between atoms: C16_20  and  O6_23
REMARK   10  A    between atoms: O7_24  and  C18_25
REMARK   11  A    between atoms: C19_27  and  O12_40
REMARK   12  A    between atoms: C20_29  and  O11_39
REMARK   13  A    between atoms: C21_31  and  O10_38
REMARK   14  A    between atoms: C22_33  and  C23_36
REMARK   15  A    between atoms: C23_36  and  O9_37
REMARK                            x       y       z     vdW  Elec       q    Type
REMARK                         _______ _______ _______ _____ _____    ______ ____
ROOT
ATOM      6  C   UNL     1      48.800  16.545  17.764  0.00  0.00    +0.203 A 
ATOM      7  C   UNL     1      49.793  17.243  17.152  0.00  0.00    -0.137 A 
ATOM      8  C   UNL     1      50.115  18.543  17.609  0.00  0.00    +0.426 A 
ATOM      9  C   UNL     1      49.340  19.076  18.742  0.00  0.00    -0.273 A 
ATOM     10  C   UNL     1      49.591  20.353  19.258  0.00  0.00    +0.237 A 
ATOM     13  C   UNL     1      48.842  20.819  20.323  0.00  0.00    -0.072 A 
ATOM     14  C   UNL     1      47.847  20.023  20.877  0.00  0.00    +0.183 A 
ATOM     31  C   UNL     1      47.590  18.754  20.372  0.00  0.00    +0.046 A 
ATOM     34  C   UNL     1      48.333  18.271  19.303  0.00  0.00    +0.175 A 
ATOM     35  O   UNL     1      51.001  19.198  17.083  0.00  0.00    -0.450 OA
ATOM     36  O   UNL     1      48.095  17.042  18.793  0.00  0.00    -0.206 OA
ENDROOT
BRANCH   6   5
ATOM      3  C   UNL     1      49.140  13.171  16.147  0.00  0.00    +0.140 A 
ATOM      4  C   UNL     1      49.446  14.438  16.606  0.00  0.00    -0.042 A 
ATOM      5  C   UNL     1      48.477  15.191  17.274  0.00  0.00    -0.001 A 
ATOM     37  C   UNL     1      47.201  14.659  17.479  0.00  0.00    -0.047 A 
ATOM     38  C   UNL     1      46.901  13.390  17.019  0.00  0.00    +0.142 A 
ATOM     41  C   UNL     1      47.867  12.645  16.347  0.00  0.00    +0.068 A 
BRANCH   3   2
ATOM      1  C   UNL     1      50.375  12.808  14.147  0.00  0.00    +0.250 C 
ATOM      2  O   UNL     1      50.083  12.438  15.496  0.00  0.00    -0.299 OA
ENDBRANCH   3   2
BRANCH  38  39
ATOM     39  O   UNL     1      45.660  12.872  17.218  0.00  0.00    -0.298 OA
ATOM     40  C   UNL     1      45.130  12.944  18.543  0.00  0.00    +0.249 C 
ENDBRANCH  38  39
BRANCH  41  42
ATOM     42  O   UNL     1      47.567  11.400  15.891  0.00  0.00    -0.469 OA
ATOM     43  H   UNL     1      48.312  10.783  15.913  0.00  0.00    +0.388 HD
ENDBRANCH  41  42
ENDBRANCH   6   5
BRANCH  10  11
ATOM     11  O   UNL     1      50.565  21.129  18.716  0.00  0.00    -0.467 OA
ATOM     12  H   UNL     1      51.410  21.085  19.185  0.00  0.00    +0.402 HD
ENDBRANCH  10  11
BRANCH  31  32
ATOM     32  O   UNL     1      46.613  17.984  20.926  0.00  0.00    -0.465 OA
ATOM     33  H   UNL     1      45.753  18.070  20.493  0.00  0.00    +0.386 HD
ENDBRANCH  31  32
BRANCH  14  15
ATOM     15  O   UNL     1      47.117  20.490  21.925  0.00  0.00    -0.276 OA
BRANCH  15  16
ATOM     16  C   UNL     1      45.934  21.228  21.613  0.00  0.00    +0.304 C 
ATOM     17  C   UNL     1      46.304  22.683  21.312  0.00  0.00    +0.152 C 
ATOM     20  C   UNL     1      45.038  23.452  20.921  0.00  0.00    +0.166 C 
ATOM     23  C   UNL     1      44.384  22.760  19.721  0.00  0.00    +0.172 C 
ATOM     26  C   UNL     1      44.088  21.302  20.083  0.00  0.00    +0.194 C 
ATOM     30  O   UNL     1      45.301  20.652  20.468  0.00  0.00    -0.370 OA
BRANCH  17  18
ATOM     18  O   UNL     1      46.885  23.277  22.475  0.00  0.00    -0.552 OA
ATOM     19  H   UNL     1      47.135  24.205  22.360  0.00  0.00    +0.396 HD
ENDBRANCH  17  18
BRANCH  20  21
ATOM     21  O   UNL     1      45.385  24.794  20.570  0.00  0.00    -0.552 OA
ATOM     22  H   UNL     1      45.169  25.446  21.250  0.00  0.00    +0.397 HD
ENDBRANCH  20  21
BRANCH  23  24
ATOM     24  O   UNL     1      43.165  23.429  19.391  0.00  0.00    -0.548 OA
ATOM     25  H   UNL     1      43.035  24.263  19.861  0.00  0.00    +0.396 HD
ENDBRANCH  23  24
BRANCH  26  27
ATOM     27  C   UNL     1      43.489  20.587  18.870  0.00  0.00    +0.227 C 
BRANCH  27  28
ATOM     28  O   UNL     1      42.147  21.036  18.667  0.00  0.00    -0.564 OA
ATOM     29  H   UNL     1      41.672  21.237  19.485  0.00  0.00    +0.387 HD
ENDBRANCH  27  28
ENDBRANCH  26  27
ENDBRANCH  15  16
ENDBRANCH  14  15
TORSDOF 13
ENDMDL
MODEL 8
REMARK VINA RESULT:      -6.2      3.454      5.300
REMARK  Name = ZINC95486130
REMARK  15 active torsions:
REMARK  status: ('A' for Active; 'I' for Inactive)
REMARK    1  A    between atoms: C1_1  and  O1_2
REMARK    2  A    between atoms: O1_2  and  C2_3
REMARK    3  A    between atoms: C4_5  and  C9_12
REMARK    4  A    between atoms: C6_7  and  O3_10
REMARK    5  A    between atoms: C7_8  and  O2_9
REMARK    6  A    between atoms: O3_10  and  C8_11
REMARK    7  A    between atoms: C13_17  and  O13_41
REMARK    8  A    between atoms: C15_19  and  O7_24
REMARK    9  A    between atoms: C16_20  and  O6_23
REMARK   10  A    between atoms: O7_24  and  C18_25
REMARK   11  A    between atoms: C19_27  and  O12_40
REMARK   12  A    between atoms: C20_29  and  O11_39
REMARK   13  A    between atoms: C21_31  and  O10_38
REMARK   14  A    between atoms: C22_33  and  C23_36
REMARK   15  A    between atoms: C23_36  and  O9_37
REMARK                            x       y       z     vdW  Elec       q    Type
REMARK                         _______ _______ _______ _____ _____    ______ ____
ROOT
ATOM      6  C   UNL     1      50.933  16.225  17.249  0.00  0.00    +0.203 A 
ATOM      7  C   UNL     1      51.825  17.167  16.841  0.00  0.00    -0.137 A 
ATOM      8  C   UNL     1      51.614  18.522  17.188  0.00  0.00    +0.426 A 
ATOM      9  C   UNL     1      50.417  18.841  17.984  0.00  0.00    -0.273 A 
ATOM     10  C   UNL     1      50.130  20.156  18.371  0.00  0.00    +0.237 A 
ATOM     13  C   UNL     1      48.996  20.416  19.119  0.00  0.00    -0.072 A 
ATOM     14  C   UNL     1      48.148  19.377  19.485  0.00  0.00    +0.183 A 
ATOM     31  C   UNL     1      48.425  18.070  19.106  0.00  0.00    +0.046 A 
ATOM     34  C   UNL     1      49.559  17.791  18.355  0.00  0.00    +0.175 A 
ATOM     35  O   UNL     1      52.394  19.394  16.838  0.00  0.00    -0.450 OA
ATOM     36  O   UNL     1      49.842  16.527  17.971  0.00  0.00    -0.206 OA
ENDROOT
BRANCH   6   5
ATOM      3  C   UNL     1      51.437  12.511  17.516  0.00  0.00    +0.140 A 
ATOM      4  C   UNL     1      51.215  13.829  17.867  0.00  0.00    -0.042 A 
ATOM      5  C   UNL     1      51.170  14.816  16.879  0.00  0.00    -0.001 A 
ATOM     37  C   UNL     1      51.348  14.467  15.537  0.00  0.00    -0.047 A 
ATOM     38  C   UNL     1      51.570  13.146  15.193  0.00  0.00    +0.142 A 
ATOM     41  C   UNL     1      51.620  12.166  16.180  0.00  0.00    +0.068 A 
BRANCH   3   2
ATOM      1  C   UNL     1      52.654  11.501  19.293  0.00  0.00    +0.250 C 
ATOM      2  O   UNL     1      51.481  11.550  18.478  0.00  0.00    -0.299 OA
ENDBRANCH   3   2
BRANCH  38  39
ATOM     39  O   UNL     1      51.743  12.806  13.887  0.00  0.00    -0.298 OA
ATOM     40  C   UNL     1      50.593  12.863  13.042  0.00  0.00    +0.249 C 
ENDBRANCH  38  39
BRANCH  41  42
ATOM     42  O   UNL     1      51.843  10.869  15.838  0.00  0.00    -0.469 OA
ATOM     43  H   UNL     1      51.208  10.515  15.201  0.00  0.00    +0.388 HD
ENDBRANCH  41  42
ENDBRANCH   6   5
BRANCH  10  11
ATOM     11  O   UNL     1      50.960  21.170  18.014  0.00  0.00    -0.467 OA
ATOM     12  H   UNL     1      51.872  21.056  18.315  0.00  0.00    +0.402 HD
ENDBRANCH  10  11
BRANCH  31  32
ATOM     32  O   UNL     1      47.586  17.062  19.473  0.00  0.00    -0.465 OA
ATOM     33  H   UNL     1      47.091  16.675  18.737  0.00  0.00    +0.386 HD
ENDBRANCH  31  32
BRANCH  14  15
ATOM     15  O   UNL     1      47.037  19.643  20.221  0.00  0.00    -0.276 OA
BRANCH  15  16
ATOM     16  C   UNL     1      45.916  20.194  19.527  0.00  0.00    +0.304 C 
ATOM     17  C   UNL     1      44.655  19.400  19.881  0.00  0.00    +0.152 C 
ATOM     20  C   UNL     1      43.450  20.033  19.180  0.00  0.00    +0.166 C 
ATOM     23  C   UNL     1      43.346  21.504  19.596  0.00  0.00    +0.172 C 
ATOM     26  C   UNL     1      44.656  22.217  19.254  0.00  0.00    +0.194 C 
ATOM     30  O   UNL     1      45.741  21.559  19.912  0.00  0.00    -0.370 OA
BRANCH  17  18
ATOM     18  O   UNL     1      44.806  18.047  19.445  0.00  0.00    -0.552 OA
ATOM     19  H   UNL     1      44.542  17.390  20.104  0.00  0.00    +0.396 HD
ENDBRANCH  17  18
BRANCH  20  21
ATOM     21  O   UNL     1      42.258  19.341  19.561  0.00  0.00    -0.552 OA
ATOM     22  H   UNL     1      41.810  19.724  20.328  0.00  0.00    +0.397 HD
ENDBRANCH  20  21
BRANCH  23  24
ATOM     24  O   UNL     1      42.266  22.123  18.895  0.00  0.00    -0.548 OA
ATOM     25  H   UNL     1      42.520  22.914  18.400  0.00  0.00    +0.396 HD
ENDBRANCH  23  24
BRANCH  26  27
ATOM     27  C   UNL     1      44.583  23.672  19.721  0.00  0.00    +0.227 C 
BRANCH  27  28
ATOM     28  O   UNL     1      43.847  24.442  18.768  0.00  0.00    -0.564 OA
ATOM     29  H   UNL     1      42.920  24.179  18.680  0.00  0.00    +0.387 HD
ENDBRANCH  27  28
ENDBRANCH  26  27
ENDBRANCH  15  16
ENDBRANCH  14  15
TORSDOF 13
ENDMDL
MODEL 9
REMARK VINA RESULT:      -6.1      2.882      4.123
REMARK  Name = ZINC95486130
REMARK  15 active torsions:
REMARK  status: ('A' for Active; 'I' for Inactive)
REMARK    1  A    between atoms: C1_1  and  O1_2
REMARK    2  A    between atoms: O1_2  and  C2_3
REMARK    3  A    between atoms: C4_5  and  C9_12
REMARK    4  A    between atoms: C6_7  and  O3_10
REMARK    5  A    between atoms: C7_8  and  O2_9
REMARK    6  A    between atoms: O3_10  and  C8_11
REMARK    7  A    between atoms: C13_17  and  O13_41
REMARK    8  A    between atoms: C15_19  and  O7_24
REMARK    9  A    between atoms: C16_20  and  O6_23
REMARK   10  A    between atoms: O7_24  and  C18_25
REMARK   11  A    between atoms: C19_27  and  O12_40
REMARK   12  A    between atoms: C20_29  and  O11_39
REMARK   13  A    between atoms: C21_31  and  O10_38
REMARK   14  A    between atoms: C22_33  and  C23_36
REMARK   15  A    between atoms: C23_36  and  O9_37
REMARK                            x       y       z     vdW  Elec       q    Type
REMARK                         _______ _______ _______ _____ _____    ______ ____
ROOT
ATOM      6  C   UNL     1      48.741  16.475  17.805  0.00  0.00    +0.203 A 
ATOM      7  C   UNL     1      49.716  17.172  17.163  0.00  0.00    -0.137 A 
ATOM      8  C   UNL     1      50.033  18.482  17.592  0.00  0.00    +0.426 A 
ATOM      9  C   UNL     1      49.274  19.027  18.730  0.00  0.00    -0.273 A 
ATOM     10  C   UNL     1      49.521  20.315  19.220  0.00  0.00    +0.237 A 
ATOM     13  C   UNL     1      48.787  20.791  20.291  0.00  0.00    -0.072 A 
ATOM     14  C   UNL     1      47.811  19.995  20.877  0.00  0.00    +0.183 A 
ATOM     31  C   UNL     1      47.558  18.716  20.398  0.00  0.00    +0.046 A 
ATOM     34  C   UNL     1      48.286  18.222  19.324  0.00  0.00    +0.175 A 
ATOM     35  O   UNL     1      50.902  19.137  17.038  0.00  0.00    -0.450 OA
ATOM     36  O   UNL     1      48.051  16.982  18.839  0.00  0.00    -0.206 OA
ENDROOT
BRANCH   6   5
ATOM      3  C   UNL     1      46.885  13.264  17.201  0.00  0.00    +0.140 A 
ATOM      4  C   UNL     1      47.178  14.544  17.634  0.00  0.00    -0.042 A 
ATOM      5  C   UNL     1      48.423  15.109  17.344  0.00  0.00    -0.001 A 
ATOM     37  C   UNL     1      49.367  14.380  16.616  0.00  0.00    -0.047 A 
ATOM     38  C   UNL     1      49.067  13.101  16.185  0.00  0.00    +0.142 A 
ATOM     41  C   UNL     1      47.828  12.537  16.481  0.00  0.00    +0.068 A 
BRANCH   3   2
ATOM      1  C   UNL     1      45.076  13.064  18.732  0.00  0.00    +0.250 C 
ATOM      2  O   UNL     1      45.674  12.713  17.483  0.00  0.00    -0.299 OA
ENDBRANCH   3   2
BRANCH  38  39
ATOM     39  O   UNL     1      49.985  12.391  15.477  0.00  0.00    -0.298 OA
ATOM     40  C   UNL     1      51.075  13.121  14.909  0.00  0.00    +0.249 C 
ENDBRANCH  38  39
BRANCH  41  42
ATOM     42  O   UNL     1      47.539  11.278  16.060  0.00  0.00    -0.469 OA
ATOM     43  H   UNL     1      47.720  10.592  16.718  0.00  0.00    +0.388 HD
ENDBRANCH  41  42
ENDBRANCH   6   5
BRANCH  10  11
ATOM     11  O   UNL     1      50.477  21.091  18.647  0.00  0.00    -0.467 OA
ATOM     12  H   UNL     1      50.757  21.838  19.194  0.00  0.00    +0.402 HD
ENDBRANCH  10  11
BRANCH  31  32
ATOM     32  O   UNL     1      46.600  17.946  20.983  0.00  0.00    -0.465 OA
ATOM     33  H   UNL     1      46.836  17.010  21.054  0.00  0.00    +0.386 HD
ENDBRANCH  31  32
BRANCH  14  15
ATOM     15  O   UNL     1      47.096  20.472  21.930  0.00  0.00    -0.276 OA
BRANCH  15  16
ATOM     16  C   UNL     1      45.904  21.200  21.628  0.00  0.00    +0.304 C 
ATOM     17  C   UNL     1      46.262  22.650  21.292  0.00  0.00    +0.152 C 
ATOM     20  C   UNL     1      44.986  23.407  20.911  0.00  0.00    +0.166 C 
ATOM     23  C   UNL     1      44.310  22.689  19.739  0.00  0.00    +0.172 C 
ATOM     26  C   UNL     1      44.027  21.238  20.135  0.00  0.00    +0.194 C 
ATOM     30  O   UNL     1      45.251  20.600  20.508  0.00  0.00    -0.370 OA
BRANCH  17  18
ATOM     18  O   UNL     1      46.865  23.269  22.431  0.00  0.00    -0.552 OA
ATOM     19  H   UNL     1      47.276  24.124  22.242  0.00  0.00    +0.396 HD
ENDBRANCH  17  18
BRANCH  20  21
ATOM     21  O   UNL     1      45.321  24.743  20.527  0.00  0.00    -0.552 OA
ATOM     22  H   UNL     1      44.562  25.273  20.248  0.00  0.00    +0.397 HD
ENDBRANCH  20  21
BRANCH  23  24
ATOM     24  O   UNL     1      43.083  23.347  19.421  0.00  0.00    -0.548 OA
ATOM     25  H   UNL     1      43.188  24.129  18.862  0.00  0.00    +0.396 HD
ENDBRANCH  23  24
BRANCH  26  27
ATOM     27  C   UNL     1      43.406  20.497  18.949  0.00  0.00    +0.227 C 
BRANCH  27  28
ATOM     28  O   UNL     1      42.008  20.787  18.885  0.00  0.00    -0.564 OA
ATOM     29  H   UNL     1      41.650  20.803  17.987  0.00  0.00    +0.387 HD
ENDBRANCH  27  28
ENDBRANCH  26  27
ENDBRANCH  15  16
ENDBRANCH  14  15
TORSDOF 13
ENDMDL
