MODEL 1
REMARK VINA RESULT:      -7.6      0.000      0.000
REMARK  Name = ZINC95485982
REMARK  13 active torsions:
REMARK  status: ('A' for Active; 'I' for Inactive)
REMARK    1  A    between atoms: C1_1  and  C2_2
REMARK    2  A    between atoms: C2_2  and  C3_4
REMARK    3  A    between atoms: C2_2  and  C10_11
REMARK    4  A    between atoms: C3_4  and  C4_5
REMARK    5  A    between atoms: C4_5  and  C5_6
REMARK    6  A    between atoms: C5_6  and  C7_8
REMARK    7  A    between atoms: C7_8  and  C8_9
REMARK    8  A    between atoms: C7_8  and  C9_10
REMARK    9  A    between atoms: C13_15  and  C31_37
REMARK   10  A    between atoms: C14_16  and  C30_36
REMARK   11  A    between atoms: C26_30  and  O1_35
REMARK   12  A    between atoms: C27_32  and  C28_33
REMARK   13  A    between atoms: C27_32  and  C29_34
REMARK                            x       y       z     vdW  Elec       q    Type
REMARK                         _______ _______ _______ _____ _____    ______ ____
ROOT
ATOM      3  C   UNL     1      44.984  17.230  20.792  0.00  0.00    -0.006 C 
ATOM      4  C   UNL     1      45.097  15.921  19.983  0.00  0.00    +0.007 C 
ATOM      5  C   UNL     1      46.464  16.036  19.262  0.00  0.00    +0.016 C 
ATOM      6  C   UNL     1      47.349  16.734  20.323  0.00  0.00    -0.033 C 
ATOM      7  C   UNL     1      47.725  15.680  21.366  0.00  0.00    +0.015 C 
ATOM      8  C   UNL     1      48.611  17.249  19.726  0.00  0.00    +0.019 C 
ATOM      9  C   UNL     1      48.857  16.703  18.326  0.00  0.00    +0.017 C 
ATOM     10  C   UNL     1      50.244  17.138  17.835  0.00  0.00    +0.019 C 
ATOM     11  C   UNL     1      50.172  18.627  17.522  0.00  0.00    +0.031 C 
ATOM     12  C   UNL     1      49.791  19.405  18.784  0.00  0.00    -0.100 C 
ATOM     13  C   UNL     1      49.640  20.916  18.553  0.00  0.00    +0.056 C 
ATOM     14  C   UNL     1      50.964  21.434  17.975  0.00  0.00    -0.015 C 
ATOM     15  C   UNL     1      51.321  20.672  16.700  0.00  0.00    +0.167 C 
ATOM     18  C   UNL     1      50.461  19.002  20.100  0.00  0.00    +0.000 C 
ATOM     19  C   UNL     1      51.501  19.178  17.011  0.00  0.00    -0.042 C 
ATOM     20  C   UNL     1      51.901  18.444  15.729  0.00  0.00    +0.028 C 
ATOM     21  C   UNL     1      52.582  18.986  18.076  0.00  0.00    +0.032 C 
ATOM     22  C   UNL     1      48.962  18.716  19.859  0.00  0.00    -0.078 C 
ATOM     23  C   UNL     1      47.988  19.614  20.632  0.00  0.00    +0.043 C 
ATOM     24  C   UNL     1      46.560  19.123  20.392  0.00  0.00    +0.023 C 
ATOM     25  C   UNL     1      46.425  17.734  21.009  0.00  0.00    -0.036 C 
ATOM     26  C   UNL     1      46.738  17.788  22.505  0.00  0.00    +0.026 C 
ENDROOT
BRANCH   3   2
ATOM      1  C   UNL     1      44.131  15.450  22.324  0.00  0.00    +0.007 C 
ATOM      2  C   UNL     1      44.314  16.958  22.141  0.00  0.00    -0.011 C 
BRANCH   2  27
ATOM     27  C   UNL     1      42.948  17.645  22.179  0.00  0.00    +0.020 C 
BRANCH  27  28
ATOM     28  C   UNL     1      43.028  18.980  21.434  0.00  0.00    +0.049 C 
BRANCH  28  29
ATOM     29  C   UNL     1      41.755  19.199  20.659  0.00  0.00    -0.111 C 
ATOM     33  C   UNL     1      40.595  18.982  21.228  0.00  0.00    -0.009 C 
BRANCH  29  30
ATOM     30  C   UNL     1      41.815  19.668  19.228  0.00  0.00    +0.010 C 
ATOM     31  C   UNL     1      43.233  20.147  18.908  0.00  0.00    +0.024 C 
ATOM     32  C   UNL     1      40.830  20.821  19.027  0.00  0.00    +0.022 C 
ENDBRANCH  29  30
ENDBRANCH  28  29
ENDBRANCH  27  28
ENDBRANCH   2  27
ENDBRANCH   3   2
BRANCH  15  16
ATOM     16  O   UNL     1      52.540  21.192  16.167  0.00  0.00    -0.564 OA
ATOM     17  H   UNL     1      52.549  21.262  15.203  0.00  0.00    +0.375 HD
ENDBRANCH  15  16
TORSDOF 6
ENDMDL
MODEL 2
REMARK VINA RESULT:      -7.0      3.467      7.406
REMARK  Name = ZINC95485982
REMARK  13 active torsions:
REMARK  status: ('A' for Active; 'I' for Inactive)
REMARK    1  A    between atoms: C1_1  and  C2_2
REMARK    2  A    between atoms: C2_2  and  C3_4
REMARK    3  A    between atoms: C2_2  and  C10_11
REMARK    4  A    between atoms: C3_4  and  C4_5
REMARK    5  A    between atoms: C4_5  and  C5_6
REMARK    6  A    between atoms: C5_6  and  C7_8
REMARK    7  A    between atoms: C7_8  and  C8_9
REMARK    8  A    between atoms: C7_8  and  C9_10
REMARK    9  A    between atoms: C13_15  and  C31_37
REMARK   10  A    between atoms: C14_16  and  C30_36
REMARK   11  A    between atoms: C26_30  and  O1_35
REMARK   12  A    between atoms: C27_32  and  C28_33
REMARK   13  A    between atoms: C27_32  and  C29_34
REMARK                            x       y       z     vdW  Elec       q    Type
REMARK                         _______ _______ _______ _____ _____    ______ ____
ROOT
ATOM      3  C   UNL     1      48.110  19.157  18.725  0.00  0.00    -0.006 C 
ATOM      4  C   UNL     1      46.625  19.139  19.147  0.00  0.00    +0.007 C 
ATOM      5  C   UNL     1      46.190  17.665  18.948  0.00  0.00    +0.016 C 
ATOM      6  C   UNL     1      47.451  16.878  19.384  0.00  0.00    -0.033 C 
ATOM      7  C   UNL     1      47.496  16.903  20.913  0.00  0.00    +0.015 C 
ATOM      8  C   UNL     1      47.380  15.455  18.957  0.00  0.00    +0.019 C 
ATOM      9  C   UNL     1      45.987  15.059  18.486  0.00  0.00    +0.017 C 
ATOM     10  C   UNL     1      45.939  13.548  18.217  0.00  0.00    +0.019 C 
ATOM     11  C   UNL     1      46.728  13.286  16.941  0.00  0.00    +0.031 C 
ATOM     12  C   UNL     1      48.177  13.744  17.122  0.00  0.00    -0.100 C 
ATOM     13  C   UNL     1      49.039  13.569  15.863  0.00  0.00    +0.056 C 
ATOM     14  C   UNL     1      48.984  12.089  15.463  0.00  0.00    -0.015 C 
ATOM     15  C   UNL     1      47.536  11.649  15.255  0.00  0.00    +0.167 C 
ATOM     18  C   UNL     1      48.869  13.416  18.447  0.00  0.00    +0.000 C 
ATOM     19  C   UNL     1      46.744  11.807  16.562  0.00  0.00    -0.042 C 
ATOM     20  C   UNL     1      45.311  11.318  16.342  0.00  0.00    +0.028 C 
ATOM     21  C   UNL     1      47.401  10.997  17.681  0.00  0.00    +0.032 C 
ATOM     22  C   UNL     1      48.482  14.871  18.100  0.00  0.00    -0.078 C 
ATOM     23  C   UNL     1      49.651  15.789  17.719  0.00  0.00    +0.043 C 
ATOM     24  C   UNL     1      49.126  17.213  17.536  0.00  0.00    +0.023 C 
ATOM     25  C   UNL     1      48.625  17.714  18.888  0.00  0.00    -0.036 C 
ATOM     26  C   UNL     1      49.758  17.679  19.916  0.00  0.00    +0.026 C 
ENDROOT
BRANCH   3   2
ATOM      1  C   UNL     1      47.937  20.859  20.547  0.00  0.00    +0.007 C 
ATOM      2  C   UNL     1      48.902  20.104  19.630  0.00  0.00    -0.011 C 
BRANCH   2  27
ATOM     27  C   UNL     1      49.674  21.104  18.768  0.00  0.00    +0.020 C 
BRANCH  27  28
ATOM     28  C   UNL     1      51.174  20.953  19.032  0.00  0.00    +0.049 C 
BRANCH  28  29
ATOM     29  C   UNL     1      51.769  20.005  18.023  0.00  0.00    -0.111 C 
ATOM     33  C   UNL     1      52.713  19.172  18.383  0.00  0.00    -0.009 C 
BRANCH  29  30
ATOM     30  C   UNL     1      51.278  20.016  16.598  0.00  0.00    +0.010 C 
ATOM     31  C   UNL     1      51.857  18.814  15.849  0.00  0.00    +0.024 C 
ATOM     32  C   UNL     1      51.728  21.309  15.914  0.00  0.00    +0.022 C 
ENDBRANCH  29  30
ENDBRANCH  28  29
ENDBRANCH  27  28
ENDBRANCH   2  27
ENDBRANCH   3   2
BRANCH  15  16
ATOM     16  O   UNL     1      47.514  10.277  14.855  0.00  0.00    -0.564 OA
ATOM     17  H   UNL     1      47.991  10.099  14.034  0.00  0.00    +0.375 HD
ENDBRANCH  15  16
TORSDOF 6
ENDMDL
MODEL 3
REMARK VINA RESULT:      -6.7      3.656      7.260
REMARK  Name = ZINC95485982
REMARK  13 active torsions:
REMARK  status: ('A' for Active; 'I' for Inactive)
REMARK    1  A    between atoms: C1_1  and  C2_2
REMARK    2  A    between atoms: C2_2  and  C3_4
REMARK    3  A    between atoms: C2_2  and  C10_11
REMARK    4  A    between atoms: C3_4  and  C4_5
REMARK    5  A    between atoms: C4_5  and  C5_6
REMARK    6  A    between atoms: C5_6  and  C7_8
REMARK    7  A    between atoms: C7_8  and  C8_9
REMARK    8  A    between atoms: C7_8  and  C9_10
REMARK    9  A    between atoms: C13_15  and  C31_37
REMARK   10  A    between atoms: C14_16  and  C30_36
REMARK   11  A    between atoms: C26_30  and  O1_35
REMARK   12  A    between atoms: C27_32  and  C28_33
REMARK   13  A    between atoms: C27_32  and  C29_34
REMARK                            x       y       z     vdW  Elec       q    Type
REMARK                         _______ _______ _______ _____ _____    ______ ____
ROOT
ATOM      3  C   UNL     1      48.074  18.805  18.665  0.00  0.00    -0.006 C 
ATOM      4  C   UNL     1      46.537  18.673  18.638  0.00  0.00    +0.007 C 
ATOM      5  C   UNL     1      46.288  17.201  18.219  0.00  0.00    +0.016 C 
ATOM      6  C   UNL     1      47.428  16.446  18.945  0.00  0.00    -0.033 C 
ATOM      7  C   UNL     1      47.035  16.337  20.420  0.00  0.00    +0.015 C 
ATOM      8  C   UNL     1      47.588  15.063  18.417  0.00  0.00    +0.019 C 
ATOM      9  C   UNL     1      46.420  14.639  17.538  0.00  0.00    +0.017 C 
ATOM     10  C   UNL     1      46.564  13.158  17.162  0.00  0.00    +0.019 C 
ATOM     11  C   UNL     1      47.700  13.051  16.154  0.00  0.00    +0.031 C 
ATOM     12  C   UNL     1      48.999  13.565  16.777  0.00  0.00    -0.100 C 
ATOM     13  C   UNL     1      50.194  13.546  15.813  0.00  0.00    +0.056 C 
ATOM     14  C   UNL     1      50.365  12.106  15.311  0.00  0.00    -0.015 C 
ATOM     15  C   UNL     1      49.074  11.612  14.663  0.00  0.00    +0.167 C 
ATOM     18  C   UNL     1      49.309  13.157  18.220  0.00  0.00    +0.000 C 
ATOM     19  C   UNL     1      47.933  11.613  15.693  0.00  0.00    -0.042 C 
ATOM     20  C   UNL     1      46.663  11.072  15.035  0.00  0.00    +0.028 C 
ATOM     21  C   UNL     1      48.304  10.743  16.895  0.00  0.00    +0.032 C 
ATOM     22  C   UNL     1      48.929  14.616  17.877  0.00  0.00    -0.078 C 
ATOM     23  C   UNL     1      50.085  15.623  17.915  0.00  0.00    +0.043 C 
ATOM     24  C   UNL     1      49.529  17.028  17.688  0.00  0.00    +0.023 C 
ATOM     25  C   UNL     1      48.629  17.381  18.869  0.00  0.00    -0.036 C 
ATOM     26  C   UNL     1      49.423  17.315  20.175  0.00  0.00    +0.026 C 
ENDROOT
BRANCH   3   2
ATOM      1  C   UNL     1      47.271  20.119  20.633  0.00  0.00    +0.007 C 
ATOM      2  C   UNL     1      48.504  19.708  19.823  0.00  0.00    -0.011 C 
BRANCH   2  27
ATOM     27  C   UNL     1      49.189  20.957  19.268  0.00  0.00    +0.020 C 
BRANCH  27  28
ATOM     28  C   UNL     1      50.070  20.569  18.078  0.00  0.00    +0.049 C 
BRANCH  28  29
ATOM     29  C   UNL     1      51.518  20.603  18.491  0.00  0.00    -0.111 C 
ATOM     33  C   UNL     1      51.908  21.408  19.449  0.00  0.00    -0.009 C 
BRANCH  29  30
ATOM     30  C   UNL     1      52.519  19.712  17.803  0.00  0.00    +0.010 C 
ATOM     31  C   UNL     1      52.038  19.407  16.382  0.00  0.00    +0.024 C 
ATOM     32  C   UNL     1      52.661  18.404  18.584  0.00  0.00    +0.022 C 
ENDBRANCH  29  30
ENDBRANCH  28  29
ENDBRANCH  27  28
ENDBRANCH   2  27
ENDBRANCH   3   2
BRANCH  15  16
ATOM     16  O   UNL     1      49.269  10.282  14.180  0.00  0.00    -0.564 OA
ATOM     17  H   UNL     1      50.183   9.974  14.231  0.00  0.00    +0.375 HD
ENDBRANCH  15  16
TORSDOF 6
ENDMDL
MODEL 4
REMARK VINA RESULT:      -6.2      3.323      7.036
REMARK  Name = ZINC95485982
REMARK  13 active torsions:
REMARK  status: ('A' for Active; 'I' for Inactive)
REMARK    1  A    between atoms: C1_1  and  C2_2
REMARK    2  A    between atoms: C2_2  and  C3_4
REMARK    3  A    between atoms: C2_2  and  C10_11
REMARK    4  A    between atoms: C3_4  and  C4_5
REMARK    5  A    between atoms: C4_5  and  C5_6
REMARK    6  A    between atoms: C5_6  and  C7_8
REMARK    7  A    between atoms: C7_8  and  C8_9
REMARK    8  A    between atoms: C7_8  and  C9_10
REMARK    9  A    between atoms: C13_15  and  C31_37
REMARK   10  A    between atoms: C14_16  and  C30_36
REMARK   11  A    between atoms: C26_30  and  O1_35
REMARK   12  A    between atoms: C27_32  and  C28_33
REMARK   13  A    between atoms: C27_32  and  C29_34
REMARK                            x       y       z     vdW  Elec       q    Type
REMARK                         _______ _______ _______ _____ _____    ______ ____
ROOT
ATOM      3  C   UNL     1      48.971  16.162  17.289  0.00  0.00    -0.006 C 
ATOM      4  C   UNL     1      50.220  17.035  17.537  0.00  0.00    +0.007 C 
ATOM      5  C   UNL     1      49.682  18.253  18.331  0.00  0.00    +0.016 C 
ATOM      6  C   UNL     1      48.607  17.613  19.244  0.00  0.00    -0.033 C 
ATOM      7  C   UNL     1      49.342  16.902  20.382  0.00  0.00    +0.015 C 
ATOM      8  C   UNL     1      47.725  18.646  19.852  0.00  0.00    +0.019 C 
ATOM      9  C   UNL     1      48.277  20.055  19.681  0.00  0.00    +0.017 C 
ATOM     10  C   UNL     1      47.412  21.051  20.467  0.00  0.00    +0.019 C 
ATOM     11  C   UNL     1      46.092  21.197  19.721  0.00  0.00    +0.031 C 
ATOM     12  C   UNL     1      45.389  19.840  19.637  0.00  0.00    -0.100 C 
ATOM     13  C   UNL     1      44.070  19.878  18.852  0.00  0.00    +0.056 C 
ATOM     14  C   UNL     1      43.161  20.920  19.518  0.00  0.00    -0.015 C 
ATOM     15  C   UNL     1      43.859  22.278  19.570  0.00  0.00    +0.167 C 
ATOM     18  C   UNL     1      45.387  18.958  20.888  0.00  0.00    +0.000 C 
ATOM     19  C   UNL     1      45.144  22.178  20.407  0.00  0.00    -0.042 C 
ATOM     20  C   UNL     1      45.801  23.558  20.483  0.00  0.00    +0.028 C 
ATOM     21  C   UNL     1      44.821  21.681  21.817  0.00  0.00    +0.032 C 
ATOM     22  C   UNL     1      46.227  18.568  19.651  0.00  0.00    -0.078 C 
ATOM     23  C   UNL     1      45.678  17.397  18.826  0.00  0.00    +0.043 C 
ATOM     24  C   UNL     1      46.681  17.050  17.725  0.00  0.00    +0.023 C 
ATOM     25  C   UNL     1      47.956  16.534  18.387  0.00  0.00    -0.036 C 
ATOM     26  C   UNL     1      47.645  15.307  19.246  0.00  0.00    +0.026 C 
ENDROOT
BRANCH   3   2
ATOM      1  C   UNL     1      50.832  14.544  17.698  0.00  0.00    +0.007 C 
ATOM      2  C   UNL     1      49.338  14.679  17.393  0.00  0.00    -0.011 C 
BRANCH   2  27
ATOM     27  C   UNL     1      49.022  13.983  16.069  0.00  0.00    +0.020 C 
BRANCH  27  28
ATOM     28  C   UNL     1      47.511  13.773  15.950  0.00  0.00    +0.049 C 
BRANCH  28  29
ATOM     29  C   UNL     1      47.202  12.300  16.009  0.00  0.00    -0.111 C 
ATOM     33  C   UNL     1      47.472  11.531  14.983  0.00  0.00    -0.009 C 
BRANCH  29  30
ATOM     30  C   UNL     1      46.580  11.710  17.248  0.00  0.00    +0.010 C 
ATOM     31  C   UNL     1      45.534  12.678  17.805  0.00  0.00    +0.024 C 
ATOM     32  C   UNL     1      47.665  11.472  18.300  0.00  0.00    +0.022 C 
ENDBRANCH  29  30
ENDBRANCH  28  29
ENDBRANCH  27  28
ENDBRANCH   2  27
ENDBRANCH   3   2
BRANCH  15  16
ATOM     16  O   UNL     1      42.982  23.235  20.168  0.00  0.00    -0.564 OA
ATOM     17  H   UNL     1      43.241  24.153  20.016  0.00  0.00    +0.375 HD
ENDBRANCH  15  16
TORSDOF 6
ENDMDL
MODEL 5
REMARK VINA RESULT:      -6.0      3.808      7.843
REMARK  Name = ZINC95485982
REMARK  13 active torsions:
REMARK  status: ('A' for Active; 'I' for Inactive)
REMARK    1  A    between atoms: C1_1  and  C2_2
REMARK    2  A    between atoms: C2_2  and  C3_4
REMARK    3  A    between atoms: C2_2  and  C10_11
REMARK    4  A    between atoms: C3_4  and  C4_5
REMARK    5  A    between atoms: C4_5  and  C5_6
REMARK    6  A    between atoms: C5_6  and  C7_8
REMARK    7  A    between atoms: C7_8  and  C8_9
REMARK    8  A    between atoms: C7_8  and  C9_10
REMARK    9  A    between atoms: C13_15  and  C31_37
REMARK   10  A    between atoms: C14_16  and  C30_36
REMARK   11  A    between atoms: C26_30  and  O1_35
REMARK   12  A    between atoms: C27_32  and  C28_33
REMARK   13  A    between atoms: C27_32  and  C29_34
REMARK                            x       y       z     vdW  Elec       q    Type
REMARK                         _______ _______ _______ _____ _____    ______ ____
ROOT
ATOM      3  C   UNL     1      48.540  14.172  18.099  0.00  0.00    -0.006 C 
ATOM      4  C   UNL     1      48.386  14.900  16.747  0.00  0.00    +0.007 C 
ATOM      5  C   UNL     1      47.448  16.094  17.062  0.00  0.00    +0.016 C 
ATOM      6  C   UNL     1      47.909  16.521  18.477  0.00  0.00    -0.033 C 
ATOM      7  C   UNL     1      49.221  17.292  18.315  0.00  0.00    +0.015 C 
ATOM      8  C   UNL     1      46.925  17.434  19.118  0.00  0.00    +0.019 C 
ATOM      9  C   UNL     1      45.890  17.958  18.131  0.00  0.00    +0.017 C 
ATOM     10  C   UNL     1      45.010  19.015  18.813  0.00  0.00    +0.019 C 
ATOM     11  C   UNL     1      44.093  18.287  19.786  0.00  0.00    +0.031 C 
ATOM     12  C   UNL     1      44.928  17.543  20.831  0.00  0.00    -0.100 C 
ATOM     13  C   UNL     1      44.088  16.732  21.827  0.00  0.00    +0.056 C 
ATOM     14  C   UNL     1      43.107  17.698  22.505  0.00  0.00    -0.015 C 
ATOM     15  C   UNL     1      42.257  18.413  21.457  0.00  0.00    +0.167 C 
ATOM     18  C   UNL     1      46.139  18.268  21.425  0.00  0.00    +0.000 C 
ATOM     19  C   UNL     1      43.155  19.240  20.523  0.00  0.00    -0.042 C 
ATOM     20  C   UNL     1      42.279  19.982  19.512  0.00  0.00    +0.028 C 
ATOM     21  C   UNL     1      43.976  20.245  21.333  0.00  0.00    +0.032 C 
ATOM     22  C   UNL     1      46.330  17.074  20.463  0.00  0.00    -0.078 C 
ATOM     23  C   UNL     1      46.793  15.768  21.120  0.00  0.00    +0.043 C 
ATOM     24  C   UNL     1      47.063  14.730  20.030  0.00  0.00    +0.023 C 
ATOM     25  C   UNL     1      48.242  15.216  19.192  0.00  0.00    -0.036 C 
ATOM     26  C   UNL     1      49.475  15.409  20.077  0.00  0.00    +0.026 C 
ENDROOT
BRANCH   3   2
ATOM      1  C   UNL     1      50.769  13.968  16.987  0.00  0.00    +0.007 C 
ATOM      2  C   UNL     1      49.969  13.644  18.251  0.00  0.00    -0.011 C 
BRANCH   2  27
ATOM     27  C   UNL     1      49.933  12.129  18.457  0.00  0.00    +0.020 C 
BRANCH  27  28
ATOM     28  C   UNL     1      48.533  11.603  18.133  0.00  0.00    +0.049 C 
BRANCH  28  29
ATOM     29  C   UNL     1      48.539  10.962  16.770  0.00  0.00    -0.111 C 
ATOM     33  C   UNL     1      49.585  10.282  16.370  0.00  0.00    -0.009 C 
BRANCH  29  30
ATOM     30  C   UNL     1      47.342  11.103  15.865  0.00  0.00    +0.010 C 
ATOM     31  C   UNL     1      47.715  11.965  14.657  0.00  0.00    +0.024 C 
ATOM     32  C   UNL     1      46.198  11.769  16.633  0.00  0.00    +0.022 C 
ENDBRANCH  29  30
ENDBRANCH  28  29
ENDBRANCH  27  28
ENDBRANCH   2  27
ENDBRANCH   3   2
BRANCH  15  16
ATOM     16  O   UNL     1      41.334  19.284  22.114  0.00  0.00    -0.564 OA
ATOM     17  H   UNL     1      40.807  18.853  22.800  0.00  0.00    +0.375 HD
ENDBRANCH  15  16
TORSDOF 6
ENDMDL
MODEL 6
REMARK VINA RESULT:      -6.0      3.681      7.756
REMARK  Name = ZINC95485982
REMARK  13 active torsions:
REMARK  status: ('A' for Active; 'I' for Inactive)
REMARK    1  A    between atoms: C1_1  and  C2_2
REMARK    2  A    between atoms: C2_2  and  C3_4
REMARK    3  A    between atoms: C2_2  and  C10_11
REMARK    4  A    between atoms: C3_4  and  C4_5
REMARK    5  A    between atoms: C4_5  and  C5_6
REMARK    6  A    between atoms: C5_6  and  C7_8
REMARK    7  A    between atoms: C7_8  and  C8_9
REMARK    8  A    between atoms: C7_8  and  C9_10
REMARK    9  A    between atoms: C13_15  and  C31_37
REMARK   10  A    between atoms: C14_16  and  C30_36
REMARK   11  A    between atoms: C26_30  and  O1_35
REMARK   12  A    between atoms: C27_32  and  C28_33
REMARK   13  A    between atoms: C27_32  and  C29_34
REMARK                            x       y       z     vdW  Elec       q    Type
REMARK                         _______ _______ _______ _____ _____    ______ ____
ROOT
ATOM      3  C   UNL     1      48.917  16.258  17.270  0.00  0.00    -0.006 C 
ATOM      4  C   UNL     1      50.164  17.141  17.488  0.00  0.00    +0.007 C 
ATOM      5  C   UNL     1      49.632  18.363  18.279  0.00  0.00    +0.016 C 
ATOM      6  C   UNL     1      48.578  17.726  19.217  0.00  0.00    -0.033 C 
ATOM      7  C   UNL     1      49.337  17.031  20.348  0.00  0.00    +0.015 C 
ATOM      8  C   UNL     1      47.700  18.760  19.831  0.00  0.00    +0.019 C 
ATOM      9  C   UNL     1      48.239  20.170  19.636  0.00  0.00    +0.017 C 
ATOM     10  C   UNL     1      47.382  21.168  20.427  0.00  0.00    +0.019 C 
ATOM     11  C   UNL     1      46.049  21.299  19.704  0.00  0.00    +0.031 C 
ATOM     12  C   UNL     1      45.353  19.937  19.645  0.00  0.00    -0.100 C 
ATOM     13  C   UNL     1      44.020  19.959  18.883  0.00  0.00    +0.056 C 
ATOM     14  C   UNL     1      43.117  21.002  19.554  0.00  0.00    -0.015 C 
ATOM     15  C   UNL     1      43.806  22.364  19.582  0.00  0.00    +0.167 C 
ATOM     18  C   UNL     1      45.379  19.067  20.904  0.00  0.00    +0.000 C 
ATOM     19  C   UNL     1      45.107  22.280  20.396  0.00  0.00    -0.042 C 
ATOM     20  C   UNL     1      45.756  23.665  20.448  0.00  0.00    +0.028 C 
ATOM     21  C   UNL     1      44.812  21.795  21.817  0.00  0.00    +0.032 C 
ATOM     22  C   UNL     1      46.199  18.670  19.656  0.00  0.00    -0.078 C 
ATOM     23  C   UNL     1      45.643  17.488  18.853  0.00  0.00    +0.043 C 
ATOM     24  C   UNL     1      46.628  17.137  17.738  0.00  0.00    +0.023 C 
ATOM     25  C   UNL     1      47.918  16.635  18.382  0.00  0.00    -0.036 C 
ATOM     26  C   UNL     1      47.630  15.414  19.258  0.00  0.00    +0.026 C 
ENDROOT
BRANCH   3   2
ATOM      1  C   UNL     1      50.813  14.631  17.267  0.00  0.00    +0.007 C 
ATOM      2  C   UNL     1      49.294  14.779  17.382  0.00  0.00    -0.011 C 
BRANCH   2  27
ATOM     27  C   UNL     1      48.619  13.995  16.256  0.00  0.00    +0.020 C 
BRANCH  27  28
ATOM     28  C   UNL     1      49.567  12.902  15.756  0.00  0.00    +0.049 C 
BRANCH  28  29
ATOM     29  C   UNL     1      49.385  12.719  14.272  0.00  0.00    -0.111 C 
ATOM     33  C   UNL     1      48.184  12.752  13.749  0.00  0.00    -0.009 C 
BRANCH  29  30
ATOM     30  C   UNL     1      50.585  12.497  13.388  0.00  0.00    +0.010 C 
ATOM     31  C   UNL     1      51.055  11.047  13.520  0.00  0.00    +0.024 C 
ATOM     32  C   UNL     1      51.713  13.439  13.813  0.00  0.00    +0.022 C 
ENDBRANCH  29  30
ENDBRANCH  28  29
ENDBRANCH  27  28
ENDBRANCH   2  27
ENDBRANCH   3   2
BRANCH  15  16
ATOM     16  O   UNL     1      42.934  23.321  20.185  0.00  0.00    -0.564 OA
ATOM     17  H   UNL     1      42.362  22.954  20.873  0.00  0.00    +0.375 HD
ENDBRANCH  15  16
TORSDOF 6
ENDMDL
MODEL 7
REMARK VINA RESULT:      -5.5      1.716      2.604
REMARK  Name = ZINC95485982
REMARK  13 active torsions:
REMARK  status: ('A' for Active; 'I' for Inactive)
REMARK    1  A    between atoms: C1_1  and  C2_2
REMARK    2  A    between atoms: C2_2  and  C3_4
REMARK    3  A    between atoms: C2_2  and  C10_11
REMARK    4  A    between atoms: C3_4  and  C4_5
REMARK    5  A    between atoms: C4_5  and  C5_6
REMARK    6  A    between atoms: C5_6  and  C7_8
REMARK    7  A    between atoms: C7_8  and  C8_9
REMARK    8  A    between atoms: C7_8  and  C9_10
REMARK    9  A    between atoms: C13_15  and  C31_37
REMARK   10  A    between atoms: C14_16  and  C30_36
REMARK   11  A    between atoms: C26_30  and  O1_35
REMARK   12  A    between atoms: C27_32  and  C28_33
REMARK   13  A    between atoms: C27_32  and  C29_34
REMARK                            x       y       z     vdW  Elec       q    Type
REMARK                         _______ _______ _______ _____ _____    ______ ____
ROOT
ATOM      3  C   UNL     1      44.775  18.545  20.174  0.00  0.00    -0.006 C 
ATOM      4  C   UNL     1      44.379  17.057  20.280  0.00  0.00    +0.007 C 
ATOM      5  C   UNL     1      45.641  16.293  19.803  0.00  0.00    +0.016 C 
ATOM      6  C   UNL     1      46.794  17.152  20.379  0.00  0.00    -0.033 C 
ATOM      7  C   UNL     1      46.887  16.844  21.875  0.00  0.00    +0.015 C 
ATOM      8  C   UNL     1      48.100  16.794  19.762  0.00  0.00    +0.019 C 
ATOM      9  C   UNL     1      48.031  15.495  18.970  0.00  0.00    +0.017 C 
ATOM     10  C   UNL     1      49.438  15.098  18.500  0.00  0.00    +0.019 C 
ATOM     11  C   UNL     1      49.836  16.060  17.388  0.00  0.00    +0.031 C 
ATOM     12  C   UNL     1      49.843  17.495  17.918  0.00  0.00    -0.100 C 
ATOM     13  C   UNL     1      50.181  18.545  16.849  0.00  0.00    +0.056 C 
ATOM     14  C   UNL     1      51.547  18.180  16.254  0.00  0.00    -0.015 C 
ATOM     15  C   UNL     1      51.522  16.757  15.700  0.00  0.00    +0.167 C 
ATOM     18  C   UNL     1      50.450  17.742  19.301  0.00  0.00    +0.000 C 
ATOM     19  C   UNL     1      51.224  15.757  16.828  0.00  0.00    -0.042 C 
ATOM     20  C   UNL     1      51.249  14.337  16.258  0.00  0.00    +0.028 C 
ATOM     21  C   UNL     1      52.266  15.886  17.940  0.00  0.00    +0.032 C 
ATOM     22  C   UNL     1      48.926  17.862  19.078  0.00  0.00    -0.078 C 
ATOM     23  C   UNL     1      48.373  19.293  19.067  0.00  0.00    +0.043 C 
ATOM     24  C   UNL     1      46.849  19.237  18.970  0.00  0.00    +0.023 C 
ATOM     25  C   UNL     1      46.314  18.592  20.247  0.00  0.00    -0.036 C 
ATOM     26  C   UNL     1      46.753  19.400  21.470  0.00  0.00    +0.026 C 
ENDROOT
BRANCH   3   2
ATOM      1  C   UNL     1      43.026  18.528  21.959  0.00  0.00    +0.007 C 
ATOM      2  C   UNL     1      44.170  19.334  21.338  0.00  0.00    -0.011 C 
BRANCH   2  27
ATOM     27  C   UNL     1      43.631  20.669  20.823  0.00  0.00    +0.020 C 
BRANCH  27  28
ATOM     28  C   UNL     1      43.263  20.534  19.344  0.00  0.00    +0.049 C 
BRANCH  28  29
ATOM     29  C   UNL     1      41.983  21.281  19.073  0.00  0.00    -0.111 C 
ATOM     33  C   UNL     1      42.000  22.583  18.935  0.00  0.00    -0.009 C 
BRANCH  29  30
ATOM     30  C   UNL     1      40.682  20.529  18.963  0.00  0.00    +0.010 C 
ATOM     31  C   UNL     1      40.785  19.492  17.843  0.00  0.00    +0.024 C 
ATOM     32  C   UNL     1      39.551  21.510  18.647  0.00  0.00    +0.022 C 
ENDBRANCH  29  30
ENDBRANCH  28  29
ENDBRANCH  27  28
ENDBRANCH   2  27
ENDBRANCH   3   2
BRANCH  15  16
ATOM     16  O   UNL     1      52.795  16.452  15.126  0.00  0.00    -0.564 OA
ATOM     17  H   UNL     1      53.436  17.173  15.186  0.00  0.00    +0.375 HD
ENDBRANCH  15  16
TORSDOF 6
ENDMDL
MODEL 8
REMARK VINA RESULT:      -5.4      3.172      7.210
REMARK  Name = ZINC95485982
REMARK  13 active torsions:
REMARK  status: ('A' for Active; 'I' for Inactive)
REMARK    1  A    between atoms: C1_1  and  C2_2
REMARK    2  A    between atoms: C2_2  and  C3_4
REMARK    3  A    between atoms: C2_2  and  C10_11
REMARK    4  A    between atoms: C3_4  and  C4_5
REMARK    5  A    between atoms: C4_5  and  C5_6
REMARK    6  A    between atoms: C5_6  and  C7_8
REMARK    7  A    between atoms: C7_8  and  C8_9
REMARK    8  A    between atoms: C7_8  and  C9_10
REMARK    9  A    between atoms: C13_15  and  C31_37
REMARK   10  A    between atoms: C14_16  and  C30_36
REMARK   11  A    between atoms: C26_30  and  O1_35
REMARK   12  A    between atoms: C27_32  and  C28_33
REMARK   13  A    between atoms: C27_32  and  C29_34
REMARK                            x       y       z     vdW  Elec       q    Type
REMARK                         _______ _______ _______ _____ _____    ______ ____
ROOT
ATOM      3  C   UNL     1      48.736  15.178  19.417  0.00  0.00    -0.006 C 
ATOM      4  C   UNL     1      47.538  14.698  18.571  0.00  0.00    +0.007 C 
ATOM      5  C   UNL     1      46.630  15.948  18.452  0.00  0.00    +0.016 C 
ATOM      6  C   UNL     1      47.656  17.100  18.322  0.00  0.00    -0.033 C 
ATOM      7  C   UNL     1      48.196  17.069  16.891  0.00  0.00    +0.015 C 
ATOM      8  C   UNL     1      47.015  18.427  18.534  0.00  0.00    +0.019 C 
ATOM      9  C   UNL     1      45.495  18.346  18.515  0.00  0.00    +0.017 C 
ATOM     10  C   UNL     1      44.899  19.760  18.574  0.00  0.00    +0.019 C 
ATOM     11  C   UNL     1      45.113  20.288  19.986  0.00  0.00    +0.031 C 
ATOM     12  C   UNL     1      46.609  20.332  20.304  0.00  0.00    -0.100 C 
ATOM     13  C   UNL     1      46.922  20.802  21.732  0.00  0.00    +0.056 C 
ATOM     14  C   UNL     1      46.286  22.187  21.917  0.00  0.00    -0.015 C 
ATOM     15  C   UNL     1      44.788  22.126  21.627  0.00  0.00    +0.167 C 
ATOM     18  C   UNL     1      47.555  20.851  19.217  0.00  0.00    +0.000 C 
ATOM     19  C   UNL     1      44.549  21.694  20.172  0.00  0.00    -0.042 C 
ATOM     20  C   UNL     1      43.045  21.685  19.892  0.00  0.00    +0.028 C 
ATOM     21  C   UNL     1      45.247  22.659  19.212  0.00  0.00    +0.032 C 
ATOM     22  C   UNL     1      47.546  19.355  19.605  0.00  0.00    -0.078 C 
ATOM     23  C   UNL     1      48.752  18.882  20.426  0.00  0.00    +0.043 C 
ATOM     24  C   UNL     1      48.663  17.367  20.613  0.00  0.00    +0.023 C 
ATOM     25  C   UNL     1      48.805  16.708  19.244  0.00  0.00    -0.036 C 
ATOM     26  C   UNL     1      50.139  17.100  18.606  0.00  0.00    +0.026 C 
ENDROOT
BRANCH   3   2
ATOM      1  C   UNL     1      49.701  13.552  17.784  0.00  0.00    +0.007 C 
ATOM      2  C   UNL     1      50.029  14.533  18.912  0.00  0.00    -0.011 C 
BRANCH   2  27
ATOM     27  C   UNL     1      50.706  13.783  20.060  0.00  0.00    +0.020 C 
BRANCH  27  28
ATOM     28  C   UNL     1      52.163  14.237  20.175  0.00  0.00    +0.049 C 
BRANCH  28  29
ATOM     29  C   UNL     1      52.257  15.384  21.147  0.00  0.00    -0.111 C 
ATOM     33  C   UNL     1      51.498  15.403  22.215  0.00  0.00    -0.009 C 
BRANCH  29  30
ATOM     30  C   UNL     1      53.224  16.512  20.892  0.00  0.00    +0.010 C 
ATOM     31  C   UNL     1      52.549  17.846  21.216  0.00  0.00    +0.024 C 
ATOM     32  C   UNL     1      53.646  16.498  19.421  0.00  0.00    +0.022 C 
ENDBRANCH  29  30
ENDBRANCH  28  29
ENDBRANCH  27  28
ENDBRANCH   2  27
ENDBRANCH   3   2
BRANCH  15  16
ATOM     16  O   UNL     1      44.216  23.419  21.834  0.00  0.00    -0.564 OA
ATOM     17  H   UNL     1      43.714  23.500  22.656  0.00  0.00    +0.375 HD
ENDBRANCH  15  16
TORSDOF 6
ENDMDL
MODEL 9
REMARK VINA RESULT:      -5.4      3.425      5.120
REMARK  Name = ZINC95485982
REMARK  13 active torsions:
REMARK  status: ('A' for Active; 'I' for Inactive)
REMARK    1  A    between atoms: C1_1  and  C2_2
REMARK    2  A    between atoms: C2_2  and  C3_4
REMARK    3  A    between atoms: C2_2  and  C10_11
REMARK    4  A    between atoms: C3_4  and  C4_5
REMARK    5  A    between atoms: C4_5  and  C5_6
REMARK    6  A    between atoms: C5_6  and  C7_8
REMARK    7  A    between atoms: C7_8  and  C8_9
REMARK    8  A    between atoms: C7_8  and  C9_10
REMARK    9  A    between atoms: C13_15  and  C31_37
REMARK   10  A    between atoms: C14_16  and  C30_36
REMARK   11  A    between atoms: C26_30  and  O1_35
REMARK   12  A    between atoms: C27_32  and  C28_33
REMARK   13  A    between atoms: C27_32  and  C29_34
REMARK                            x       y       z     vdW  Elec       q    Type
REMARK                         _______ _______ _______ _____ _____    ______ ____
ROOT
ATOM      3  C   UNL     1      46.597  17.753  20.176  0.00  0.00    -0.006 C 
ATOM      4  C   UNL     1      45.500  17.793  19.091  0.00  0.00    +0.007 C 
ATOM      5  C   UNL     1      45.907  16.675  18.097  0.00  0.00    +0.016 C 
ATOM      6  C   UNL     1      46.466  15.576  19.034  0.00  0.00    -0.033 C 
ATOM      7  C   UNL     1      45.268  14.883  19.686  0.00  0.00    +0.015 C 
ATOM      8  C   UNL     1      47.225  14.547  18.273  0.00  0.00    +0.019 C 
ATOM      9  C   UNL     1      47.005  14.656  16.771  0.00  0.00    +0.017 C 
ATOM     10  C   UNL     1      47.679  13.473  16.060  0.00  0.00    +0.019 C 
ATOM     11  C   UNL     1      49.183  13.702  16.119  0.00  0.00    +0.031 C 
ATOM     12  C   UNL     1      49.642  13.772  17.577  0.00  0.00    -0.100 C 
ATOM     13  C   UNL     1      51.143  14.055  17.737  0.00  0.00    +0.056 C 
ATOM     14  C   UNL     1      51.907  12.962  16.980  0.00  0.00    -0.015 C 
ATOM     15  C   UNL     1      51.465  12.920  15.518  0.00  0.00    +0.167 C 
ATOM     18  C   UNL     1      49.054  12.756  18.560  0.00  0.00    +0.000 C 
ATOM     19  C   UNL     1      49.967  12.587  15.430  0.00  0.00    -0.042 C 
ATOM     20  C   UNL     1      49.557  12.506  13.958  0.00  0.00    +0.028 C 
ATOM     21  C   UNL     1      49.679  11.253  16.122  0.00  0.00    +0.032 C 
ATOM     22  C   UNL     1      48.662  14.249  18.642  0.00  0.00    -0.078 C 
ATOM     23  C   UNL     1      49.274  15.026  19.814  0.00  0.00    +0.043 C 
ATOM     24  C   UNL     1      48.691  16.439  19.833  0.00  0.00    +0.023 C 
ATOM     25  C   UNL     1      47.198  16.334  20.135  0.00  0.00    -0.036 C 
ATOM     26  C   UNL     1      46.980  15.637  21.479  0.00  0.00    +0.026 C 
ENDROOT
BRANCH   3   2
ATOM      1  C   UNL     1      44.462  18.103  21.426  0.00  0.00    +0.007 C 
ATOM      2  C   UNL     1      45.985  18.024  21.553  0.00  0.00    -0.011 C 
BRANCH   2  27
ATOM     27  C   UNL     1      46.521  19.350  22.096  0.00  0.00    +0.020 C 
BRANCH  27  28
ATOM     28  C   UNL     1      45.465  20.442  21.909  0.00  0.00    +0.049 C 
BRANCH  28  29
ATOM     29  C   UNL     1      46.037  21.556  21.072  0.00  0.00    -0.111 C 
ATOM     33  C   UNL     1      47.018  22.290  21.537  0.00  0.00    -0.009 C 
BRANCH  29  30
ATOM     30  C   UNL     1      45.480  21.829  19.698  0.00  0.00    +0.010 C 
ATOM     31  C   UNL     1      44.049  21.295  19.613  0.00  0.00    +0.024 C 
ATOM     32  C   UNL     1      46.347  21.131  18.648  0.00  0.00    +0.022 C 
ENDBRANCH  29  30
ENDBRANCH  28  29
ENDBRANCH  27  28
ENDBRANCH   2  27
ENDBRANCH   3   2
BRANCH  15  16
ATOM     16  O   UNL     1      52.211  11.914  14.829  0.00  0.00    -0.564 OA
ATOM     17  H   UNL     1      51.915  11.012  15.010  0.00  0.00    +0.375 HD
ENDBRANCH  15  16
TORSDOF 6
ENDMDL
