MODEL 1
REMARK VINA RESULT:      -7.7      0.000      0.000
REMARK  Name = ZINC95486222
REMARK  13 active torsions:
REMARK  status: ('A' for Active; 'I' for Inactive)
REMARK    1  A    between atoms: C1_1  and  C2_2
REMARK    2  A    between atoms: C3_3  and  C4_4
REMARK    3  A    between atoms: C3_3  and  C5_5
REMARK    4  A    between atoms: C5_5  and  O2_7
REMARK    5  A    between atoms: O2_7  and  C6_8
REMARK    6  A    between atoms: C6_8  and  C7_9
REMARK    7  A    between atoms: N2_26  and  C18_27
REMARK    8  A    between atoms: C20_30  and  O5_35
REMARK    9  A    between atoms: C21_31  and  C23_34
REMARK   10  A    between atoms: O5_35  and  C24_36
REMARK   11  A    between atoms: C26_40  and  C30_46
REMARK   12  A    between atoms: C27_41  and  O9_44
REMARK   13  A    between atoms: O9_44  and  C29_45
REMARK                            x       y       z     vdW  Elec       q    Type
REMARK                         _______ _______ _______ _____ _____    ______ ____
ROOT
ATOM      7  C   UNL     1      48.061  17.683  18.603  0.00  0.00    +0.208 C 
ATOM      8  C   UNL     1      47.562  16.269  18.472  0.00  0.00    -0.116 C 
ATOM      9  C   UNL     1      46.539  15.804  19.193  0.00  0.00    -0.086 C 
ATOM     10  C   UNL     1      46.084  14.402  19.018  0.00  0.00    +0.416 C 
ATOM     11  C   UNL     1      46.750  13.516  18.060  0.00  0.00    -0.144 C 
ATOM     12  C   UNL     1      46.280  12.094  17.892  0.00  0.00    +0.136 C 
ATOM     13  C   UNL     1      47.787  13.977  17.329  0.00  0.00    +0.062 C 
ATOM     16  O   UNL     1      45.150  13.986  19.674  0.00  0.00    -0.405 OA
ATOM     17  C   UNL     1      45.816  16.663  20.197  0.00  0.00    +0.133 C 
ATOM     18  C   UNL     1      46.124  18.144  19.951  0.00  0.00    +0.108 C 
ATOM     19  C   UNL     1      45.586  18.957  21.134  0.00  0.00    +0.249 C 
ATOM     20  N   UNL     1      46.723  19.395  21.973  0.00  0.00    -0.489 NA
ATOM     21  C   UNL     1      47.511  18.249  22.446  0.00  0.00    +0.184 C 
ATOM     22  C   UNL     1      47.564  20.336  21.219  0.00  0.00    +0.153 C 
ATOM     23  C   UNL     1      46.784  21.628  21.007  0.00  0.00    +0.201 C 
ATOM     24  O   UNL     1      46.735  22.354  22.237  0.00  0.00    -0.846 OA
ATOM     25  C   UNL     1      45.378  21.340  20.547  0.00  0.00    -0.036 C 
ATOM     26  C   UNL     1      44.580  22.465  19.998  0.00  0.00    +0.405 C 
ATOM     27  O   UNL     1      45.072  23.574  19.928  0.00  0.00    -0.393 OA
ATOM     28  C   UNL     1      43.205  22.252  19.541  0.00  0.00    -0.143 C 
ATOM     29  C   UNL     1      42.406  23.403  18.985  0.00  0.00    +0.126 C 
ATOM     30  C   UNL     1      42.654  21.023  19.618  0.00  0.00    +0.046 C 
ATOM     33  C   UNL     1      43.450  19.898  20.164  0.00  0.00    +0.402 C 
ATOM     34  O   UNL     1      42.958  18.789  20.239  0.00  0.00    -0.442 OA
ATOM     35  C   UNL     1      47.970  19.716  19.888  0.00  0.00    +0.127 C 
ATOM     36  C   UNL     1      44.842  20.119  20.620  0.00  0.00    -0.206 C 
ATOM     37  C   UNL     1      48.240  15.376  17.502  0.00  0.00    +0.399 C 
ATOM     38  O   UNL     1      49.172  15.795  16.846  0.00  0.00    -0.410 OA
ATOM     39  N   UNL     1      47.583  18.297  19.849  0.00  0.00    -0.496 NA
ENDROOT
BRANCH  13  14
ATOM     14  O   UNL     1      48.408  13.165  16.442  0.00  0.00    -0.310 OA
ATOM     15  C   UNL     1      47.907  13.162  15.104  0.00  0.00    +0.245 C 
ENDBRANCH  13  14
BRANCH  30  31
ATOM     31  O   UNL     1      41.384  20.818  19.198  0.00  0.00    -0.316 OA
ATOM     32  C   UNL     1      41.212  20.076  17.989  0.00  0.00    +0.236 C 
ENDBRANCH  30  31
BRANCH   7   6
ATOM      6  C   UNL     1      49.592  17.677  18.601  0.00  0.00    +0.242 C 
BRANCH   6   5
ATOM      5  O   UNL     1      50.069  18.528  17.558  0.00  0.00    -0.327 OA
BRANCH   5   4
ATOM      4  C   UNL     1      51.285  19.084  17.731  0.00  0.00    +0.496 C 
ATOM     40  O   UNL     1      52.248  18.380  17.965  0.00  0.00    -0.507 OA
BRANCH   4   3
ATOM      1  C   UNL     1      51.416  20.613  20.096  0.00  0.00    +0.091 C 
ATOM      2  C   UNL     1      51.510  21.277  18.746  0.00  0.00    +0.067 C 
ATOM      3  C   UNL     1      51.446  20.542  17.638  0.00  0.00    -0.166 C 
ATOM     41  C   UNL     1      51.540  21.206  16.288  0.00  0.00    +0.104 C 
ENDBRANCH   4   3
ENDBRANCH   5   4
ENDBRANCH   6   5
ENDBRANCH   7   6
TORSDOF 6
ENDMDL
MODEL 2
REMARK VINA RESULT:      -6.6      1.217      1.536
REMARK  Name = ZINC95486222
REMARK  13 active torsions:
REMARK  status: ('A' for Active; 'I' for Inactive)
REMARK    1  A    between atoms: C1_1  and  C2_2
REMARK    2  A    between atoms: C3_3  and  C4_4
REMARK    3  A    between atoms: C3_3  and  C5_5
REMARK    4  A    between atoms: C5_5  and  O2_7
REMARK    5  A    between atoms: O2_7  and  C6_8
REMARK    6  A    between atoms: C6_8  and  C7_9
REMARK    7  A    between atoms: N2_26  and  C18_27
REMARK    8  A    between atoms: C20_30  and  O5_35
REMARK    9  A    between atoms: C21_31  and  C23_34
REMARK   10  A    between atoms: O5_35  and  C24_36
REMARK   11  A    between atoms: C26_40  and  C30_46
REMARK   12  A    between atoms: C27_41  and  O9_44
REMARK   13  A    between atoms: O9_44  and  C29_45
REMARK                            x       y       z     vdW  Elec       q    Type
REMARK                         _______ _______ _______ _____ _____    ______ ____
ROOT
ATOM      7  C   UNL     1      47.997  17.754  18.407  0.00  0.00    +0.208 C 
ATOM      8  C   UNL     1      47.511  16.332  18.320  0.00  0.00    -0.116 C 
ATOM      9  C   UNL     1      46.525  15.867  19.092  0.00  0.00    -0.086 C 
ATOM     10  C   UNL     1      46.080  14.458  18.958  0.00  0.00    +0.416 C 
ATOM     11  C   UNL     1      46.716  13.563  17.988  0.00  0.00    -0.144 C 
ATOM     12  C   UNL     1      46.257  12.134  17.863  0.00  0.00    +0.136 C 
ATOM     13  C   UNL     1      47.714  14.024  17.206  0.00  0.00    +0.062 C 
ATOM     16  O   UNL     1      45.180  14.041  19.661  0.00  0.00    -0.405 OA
ATOM     17  C   UNL     1      45.835  16.735  20.112  0.00  0.00    +0.133 C 
ATOM     18  C   UNL     1      46.113  18.215  19.829  0.00  0.00    +0.108 C 
ATOM     19  C   UNL     1      45.616  19.041  21.020  0.00  0.00    +0.249 C 
ATOM     20  N   UNL     1      46.782  19.507  21.802  0.00  0.00    -0.489 NA
ATOM     21  C   UNL     1      47.604  18.378  22.260  0.00  0.00    +0.184 C 
ATOM     22  C   UNL     1      47.578  20.444  20.998  0.00  0.00    +0.153 C 
ATOM     23  C   UNL     1      46.775  21.723  20.799  0.00  0.00    +0.201 C 
ATOM     24  O   UNL     1      46.770  22.469  22.018  0.00  0.00    -0.846 OA
ATOM     25  C   UNL     1      45.354  21.411  20.404  0.00  0.00    -0.036 C 
ATOM     26  C   UNL     1      44.520  22.518  19.872  0.00  0.00    +0.405 C 
ATOM     27  O   UNL     1      44.995  23.631  19.762  0.00  0.00    -0.393 OA
ATOM     28  C   UNL     1      43.129  22.281  19.477  0.00  0.00    -0.143 C 
ATOM     29  C   UNL     1      42.293  23.413  18.937  0.00  0.00    +0.126 C 
ATOM     30  C   UNL     1      42.598  21.047  19.597  0.00  0.00    +0.046 C 
ATOM     33  C   UNL     1      43.429  19.941  20.128  0.00  0.00    +0.402 C 
ATOM     34  O   UNL     1      42.955  18.828  20.241  0.00  0.00    -0.442 OA
ATOM     35  C   UNL     1      47.936  19.807  19.661  0.00  0.00    +0.127 C 
ATOM     36  C   UNL     1      44.837  20.186  20.520  0.00  0.00    -0.206 C 
ATOM     37  C   UNL     1      48.158  15.431  17.336  0.00  0.00    +0.399 C 
ATOM     38  O   UNL     1      49.055  15.850  16.634  0.00  0.00    -0.410 OA
ATOM     39  N   UNL     1      47.565  18.383  19.662  0.00  0.00    -0.496 NA
ENDROOT
BRANCH  13  14
ATOM     14  O   UNL     1      48.308  13.205  16.306  0.00  0.00    -0.310 OA
ATOM     15  C   UNL     1      49.534  12.586  16.702  0.00  0.00    +0.245 C 
ENDBRANCH  13  14
BRANCH  30  31
ATOM     31  O   UNL     1      41.313  20.820  19.236  0.00  0.00    -0.316 OA
ATOM     32  C   UNL     1      41.099  20.093  18.024  0.00  0.00    +0.236 C 
ENDBRANCH  30  31
BRANCH   7   6
ATOM      6  C   UNL     1      49.526  17.765  18.339  0.00  0.00    +0.242 C 
BRANCH   6   5
ATOM      5  O   UNL     1      50.060  17.335  19.593  0.00  0.00    -0.327 OA
BRANCH   5   4
ATOM      4  C   UNL     1      51.180  17.951  20.023  0.00  0.00    +0.496 C 
ATOM     40  O   UNL     1      51.204  18.469  21.123  0.00  0.00    -0.507 OA
BRANCH   4   3
ATOM      1  C   UNL     1      52.877  15.704  19.890  0.00  0.00    +0.091 C 
ATOM      2  C   UNL     1      53.180  16.945  19.090  0.00  0.00    +0.067 C 
ATOM      3  C   UNL     1      52.370  17.997  19.163  0.00  0.00    -0.166 C 
ATOM     41  C   UNL     1      52.674  19.238  18.363  0.00  0.00    +0.104 C 
ENDBRANCH   4   3
ENDBRANCH   5   4
ENDBRANCH   6   5
ENDBRANCH   7   6
TORSDOF 6
ENDMDL
MODEL 3
REMARK VINA RESULT:      -6.5      2.178      7.051
REMARK  Name = ZINC95486222
REMARK  13 active torsions:
REMARK  status: ('A' for Active; 'I' for Inactive)
REMARK    1  A    between atoms: C1_1  and  C2_2
REMARK    2  A    between atoms: C3_3  and  C4_4
REMARK    3  A    between atoms: C3_3  and  C5_5
REMARK    4  A    between atoms: C5_5  and  O2_7
REMARK    5  A    between atoms: O2_7  and  C6_8
REMARK    6  A    between atoms: C6_8  and  C7_9
REMARK    7  A    between atoms: N2_26  and  C18_27
REMARK    8  A    between atoms: C20_30  and  O5_35
REMARK    9  A    between atoms: C21_31  and  C23_34
REMARK   10  A    between atoms: O5_35  and  C24_36
REMARK   11  A    between atoms: C26_40  and  C30_46
REMARK   12  A    between atoms: C27_41  and  O9_44
REMARK   13  A    between atoms: O9_44  and  C29_45
REMARK                            x       y       z     vdW  Elec       q    Type
REMARK                         _______ _______ _______ _____ _____    ______ ____
ROOT
ATOM      7  C   UNL     1      48.253  19.714  20.454  0.00  0.00    +0.208 C 
ATOM      8  C   UNL     1      46.929  20.370  20.168  0.00  0.00    -0.116 C 
ATOM      9  C   UNL     1      45.984  19.779  19.432  0.00  0.00    -0.086 C 
ATOM     10  C   UNL     1      44.694  20.469  19.189  0.00  0.00    +0.416 C 
ATOM     11  C   UNL     1      44.442  21.800  19.746  0.00  0.00    -0.144 C 
ATOM     12  C   UNL     1      43.128  22.491  19.490  0.00  0.00    +0.136 C 
ATOM     13  C   UNL     1      45.392  22.406  20.489  0.00  0.00    +0.062 C 
ATOM     16  O   UNL     1      43.836  19.924  18.521  0.00  0.00    -0.405 OA
ATOM     17  C   UNL     1      46.183  18.413  18.827  0.00  0.00    +0.133 C 
ATOM     18  C   UNL     1      47.354  17.695  19.508  0.00  0.00    +0.108 C 
ATOM     19  C   UNL     1      47.685  16.433  18.703  0.00  0.00    +0.249 C 
ATOM     20  N   UNL     1      48.938  16.658  17.950  0.00  0.00    -0.489 NA
ATOM     21  C   UNL     1      48.827  17.825  17.063  0.00  0.00    +0.184 C 
ATOM     22  C   UNL     1      50.060  16.815  18.886  0.00  0.00    +0.153 C 
ATOM     23  C   UNL     1      50.315  15.478  19.572  0.00  0.00    +0.201 C 
ATOM     24  O   UNL     1      50.954  14.592  18.650  0.00  0.00    -0.846 OA
ATOM     25  C   UNL     1      49.024  14.857  20.040  0.00  0.00    -0.036 C 
ATOM     26  C   UNL     1      49.103  13.720  20.991  0.00  0.00    +0.405 C 
ATOM     27  O   UNL     1      50.188  13.326  21.370  0.00  0.00    -0.393 OA
ATOM     28  C   UNL     1      47.885  13.069  21.479  0.00  0.00    -0.143 C 
ATOM     29  C   UNL     1      47.978  11.916  22.446  0.00  0.00    +0.126 C 
ATOM     30  C   UNL     1      46.678  13.504  21.062  0.00  0.00    +0.046 C 
ATOM     33  C   UNL     1      46.597  14.639  20.113  0.00  0.00    +0.402 C 
ATOM     34  O   UNL     1      45.513  15.033  19.731  0.00  0.00    -0.442 OA
ATOM     35  C   UNL     1      49.738  17.901  19.904  0.00  0.00    +0.127 C 
ATOM     36  C   UNL     1      47.833  15.297  19.628  0.00  0.00    -0.206 C 
ATOM     37  C   UNL     1      46.680  21.717  20.735  0.00  0.00    +0.399 C 
ATOM     38  O   UNL     1      47.537  22.258  21.403  0.00  0.00    -0.410 OA
ATOM     39  N   UNL     1      48.506  18.608  19.520  0.00  0.00    -0.496 NA
ENDROOT
BRANCH  13  14
ATOM     14  O   UNL     1      45.169  23.636  21.008  0.00  0.00    -0.310 OA
ATOM     15  C   UNL     1      45.732  24.747  20.307  0.00  0.00    +0.245 C 
ENDBRANCH  13  14
BRANCH  30  31
ATOM     31  O   UNL     1      45.547  12.907  21.507  0.00  0.00    -0.316 OA
ATOM     32  C   UNL     1      44.797  13.601  22.505  0.00  0.00    +0.236 C 
ENDBRANCH  30  31
BRANCH   7   6
ATOM      6  C   UNL     1      49.368  20.754  20.315  0.00  0.00    +0.242 C 
BRANCH   6   5
ATOM      5  O   UNL     1      49.761  20.848  18.945  0.00  0.00    -0.327 OA
BRANCH   5   4
ATOM      4  C   UNL     1      51.052  21.150  18.699  0.00  0.00    +0.496 C 
ATOM     40  O   UNL     1      51.692  21.789  19.511  0.00  0.00    -0.507 OA
BRANCH   4   3
ATOM      1  C   UNL     1      52.767  18.912  18.736  0.00  0.00    +0.091 C 
ATOM      2  C   UNL     1      52.497  19.652  17.451  0.00  0.00    +0.067 C 
ATOM      3  C   UNL     1      51.685  20.706  17.449  0.00  0.00    -0.166 C 
ATOM     41  C   UNL     1      51.415  21.446  16.164  0.00  0.00    +0.104 C 
ENDBRANCH   4   3
ENDBRANCH   5   4
ENDBRANCH   6   5
ENDBRANCH   7   6
TORSDOF 6
ENDMDL
MODEL 4
REMARK VINA RESULT:      -6.2      2.724      8.784
REMARK  Name = ZINC95486222
REMARK  13 active torsions:
REMARK  status: ('A' for Active; 'I' for Inactive)
REMARK    1  A    between atoms: C1_1  and  C2_2
REMARK    2  A    between atoms: C3_3  and  C4_4
REMARK    3  A    between atoms: C3_3  and  C5_5
REMARK    4  A    between atoms: C5_5  and  O2_7
REMARK    5  A    between atoms: O2_7  and  C6_8
REMARK    6  A    between atoms: C6_8  and  C7_9
REMARK    7  A    between atoms: N2_26  and  C18_27
REMARK    8  A    between atoms: C20_30  and  O5_35
REMARK    9  A    between atoms: C21_31  and  C23_34
REMARK   10  A    between atoms: O5_35  and  C24_36
REMARK   11  A    between atoms: C26_40  and  C30_46
REMARK   12  A    between atoms: C27_41  and  O9_44
REMARK   13  A    between atoms: O9_44  and  C29_45
REMARK                            x       y       z     vdW  Elec       q    Type
REMARK                         _______ _______ _______ _____ _____    ______ ____
ROOT
ATOM      7  C   UNL     1      48.840  17.618  18.287  0.00  0.00    +0.208 C 
ATOM      8  C   UNL     1      49.901  17.954  19.300  0.00  0.00    -0.116 C 
ATOM      9  C   UNL     1      50.619  17.014  19.920  0.00  0.00    -0.086 C 
ATOM     10  C   UNL     1      51.659  17.404  20.904  0.00  0.00    +0.416 C 
ATOM     11  C   UNL     1      51.906  18.815  21.210  0.00  0.00    -0.144 C 
ATOM     12  C   UNL     1      52.964  19.198  22.212  0.00  0.00    +0.136 C 
ATOM     13  C   UNL     1      51.184  19.771  20.590  0.00  0.00    +0.062 C 
ATOM     16  O   UNL     1      52.312  16.544  21.462  0.00  0.00    -0.405 OA
ATOM     17  C   UNL     1      50.410  15.546  19.653  0.00  0.00    +0.133 C 
ATOM     18  C   UNL     1      49.630  15.348  18.349  0.00  0.00    +0.108 C 
ATOM     19  C   UNL     1      49.217  13.875  18.247  0.00  0.00    +0.249 C 
ATOM     20  N   UNL     1      47.768  13.761  18.523  0.00  0.00    -0.489 NA
ATOM     21  C   UNL     1      47.432  14.304  19.847  0.00  0.00    +0.184 C 
ATOM     22  C   UNL     1      47.006  14.441  17.467  0.00  0.00    +0.153 C 
ATOM     23  C   UNL     1      47.163  13.659  16.169  0.00  0.00    +0.201 C 
ATOM     24  O   UNL     1      46.376  12.468  16.240  0.00  0.00    -0.846 OA
ATOM     25  C   UNL     1      48.605  13.286  15.935  0.00  0.00    -0.036 C 
ATOM     26  C   UNL     1      48.989  12.800  14.586  0.00  0.00    +0.405 C 
ATOM     27  O   UNL     1      48.147  12.720  13.713  0.00  0.00    -0.393 OA
ATOM     28  C   UNL     1      50.372  12.415  14.298  0.00  0.00    -0.143 C 
ATOM     29  C   UNL     1      50.749  11.924  12.923  0.00  0.00    +0.126 C 
ATOM     30  C   UNL     1      51.310  12.502  15.264  0.00  0.00    +0.046 C 
ATOM     33  C   UNL     1      50.928  12.988  16.611  0.00  0.00    +0.402 C 
ATOM     34  O   UNL     1      51.766  13.065  17.487  0.00  0.00    -0.442 OA
ATOM     35  C   UNL     1      47.502  15.872  17.308  0.00  0.00    +0.127 C 
ATOM     36  C   UNL     1      49.528  13.380  16.895  0.00  0.00    -0.206 C 
ATOM     37  C   UNL     1      50.147  19.384  19.605  0.00  0.00    +0.399 C 
ATOM     38  O   UNL     1      49.495  20.242  19.045  0.00  0.00    -0.410 OA
ATOM     39  N   UNL     1      48.438  16.209  18.393  0.00  0.00    -0.496 NA
ENDROOT
BRANCH  13  14
ATOM     14  O   UNL     1      51.405  21.078  20.866  0.00  0.00    -0.310 OA
ATOM     15  C   UNL     1      52.339  21.768  20.033  0.00  0.00    +0.245 C 
ENDBRANCH  13  14
BRANCH  30  31
ATOM     31  O   UNL     1      52.590  12.148  15.006  0.00  0.00    -0.316 OA
ATOM     32  C   UNL     1      52.964  10.803  15.310  0.00  0.00    +0.236 C 
ENDBRANCH  30  31
BRANCH   7   6
ATOM      6  C   UNL     1      47.618  18.508  18.528  0.00  0.00    +0.242 C 
BRANCH   6   5
ATOM      5  O   UNL     1      46.973  18.112  19.740  0.00  0.00    -0.327 OA
BRANCH   5   4
ATOM      4  C   UNL     1      45.628  18.024  19.716  0.00  0.00    +0.496 C 
ATOM     40  O   UNL     1      45.091  16.952  19.512  0.00  0.00    -0.507 OA
BRANCH   4   3
ATOM      1  C   UNL     1      44.979  18.794  22.349  0.00  0.00    +0.091 C 
ATOM      2  C   UNL     1      44.495  19.600  21.172  0.00  0.00    +0.067 C 
ATOM      3  C   UNL     1      44.809  19.225  19.935  0.00  0.00    -0.166 C 
ATOM     41  C   UNL     1      44.324  20.031  18.757  0.00  0.00    +0.104 C 
ENDBRANCH   4   3
ENDBRANCH   5   4
ENDBRANCH   6   5
ENDBRANCH   7   6
TORSDOF 6
ENDMDL
MODEL 5
REMARK VINA RESULT:      -5.9      2.044      7.389
REMARK  Name = ZINC95486222
REMARK  13 active torsions:
REMARK  status: ('A' for Active; 'I' for Inactive)
REMARK    1  A    between atoms: C1_1  and  C2_2
REMARK    2  A    between atoms: C3_3  and  C4_4
REMARK    3  A    between atoms: C3_3  and  C5_5
REMARK    4  A    between atoms: C5_5  and  O2_7
REMARK    5  A    between atoms: O2_7  and  C6_8
REMARK    6  A    between atoms: C6_8  and  C7_9
REMARK    7  A    between atoms: N2_26  and  C18_27
REMARK    8  A    between atoms: C20_30  and  O5_35
REMARK    9  A    between atoms: C21_31  and  C23_34
REMARK   10  A    between atoms: O5_35  and  C24_36
REMARK   11  A    between atoms: C26_40  and  C30_46
REMARK   12  A    between atoms: C27_41  and  O9_44
REMARK   13  A    between atoms: O9_44  and  C29_45
REMARK                            x       y       z     vdW  Elec       q    Type
REMARK                         _______ _______ _______ _____ _____    ______ ____
ROOT
ATOM      7  C   UNL     1      48.334  18.027  20.525  0.00  0.00    +0.208 C 
ATOM      8  C   UNL     1      47.054  18.777  20.271  0.00  0.00    -0.116 C 
ATOM      9  C   UNL     1      46.371  18.655  19.130  0.00  0.00    -0.086 C 
ATOM     10  C   UNL     1      45.110  19.412  18.937  0.00  0.00    +0.416 C 
ATOM     11  C   UNL     1      44.604  20.301  19.986  0.00  0.00    -0.144 C 
ATOM     12  C   UNL     1      43.324  21.066  19.776  0.00  0.00    +0.136 C 
ATOM     13  C   UNL     1      45.290  20.432  21.141  0.00  0.00    +0.062 C 
ATOM     16  O   UNL     1      44.490  19.295  17.897  0.00  0.00    -0.405 OA
ATOM     17  C   UNL     1      46.841  17.762  18.011  0.00  0.00    +0.133 C 
ATOM     18  C   UNL     1      47.886  16.768  18.527  0.00  0.00    +0.108 C 
ATOM     19  C   UNL     1      48.520  16.060  17.324  0.00  0.00    +0.249 C 
ATOM     20  N   UNL     1      49.885  16.591  17.118  0.00  0.00    -0.489 NA
ATOM     21  C   UNL     1      49.867  18.046  16.913  0.00  0.00    +0.184 C 
ATOM     22  C   UNL     1      50.737  16.231  18.260  0.00  0.00    +0.153 C 
ATOM     23  C   UNL     1      50.958  14.723  18.250  0.00  0.00    +0.201 C 
ATOM     24  O   UNL     1      51.879  14.391  17.209  0.00  0.00    -0.846 OA
ATOM     25  C   UNL     1      49.662  13.990  18.017  0.00  0.00    -0.036 C 
ATOM     26  C   UNL     1      49.631  12.530  18.281  0.00  0.00    +0.405 C 
ATOM     27  O   UNL     1      50.632  11.968  18.680  0.00  0.00    -0.393 OA
ATOM     28  C   UNL     1      48.404  11.759  18.068  0.00  0.00    -0.143 C 
ATOM     29  C   UNL     1      48.385  10.277  18.342  0.00  0.00    +0.126 C 
ATOM     30  C   UNL     1      47.289  12.378  17.626  0.00  0.00    +0.046 C 
ATOM     33  C   UNL     1      47.319  13.836  17.361  0.00  0.00    +0.402 C 
ATOM     34  O   UNL     1      46.320  14.399  16.960  0.00  0.00    -0.442 OA
ATOM     35  C   UNL     1      50.080  16.681  19.558  0.00  0.00    +0.127 C 
ATOM     36  C   UNL     1      48.562  14.611  17.585  0.00  0.00    -0.206 C 
ATOM     37  C   UNL     1      46.548  19.675  21.336  0.00  0.00    +0.399 C 
ATOM     38  O   UNL     1      47.167  19.789  22.374  0.00  0.00    -0.410 OA
ATOM     39  N   UNL     1      48.907  17.521  19.270  0.00  0.00    -0.496 NA
ENDROOT
BRANCH  13  14
ATOM     14  O   UNL     1      44.830  21.251  22.116  0.00  0.00    -0.310 OA
ATOM     15  C   UNL     1      45.298  22.601  22.102  0.00  0.00    +0.245 C 
ENDBRANCH  13  14
BRANCH  30  31
ATOM     31  O   UNL     1      46.152  11.672  17.425  0.00  0.00    -0.316 OA
ATOM     32  C   UNL     1      45.939  11.146  16.113  0.00  0.00    +0.236 C 
ENDBRANCH  30  31
BRANCH   7   6
ATOM      6  C   UNL     1      49.341  18.967  21.193  0.00  0.00    +0.242 C 
BRANCH   6   5
ATOM      5  O   UNL     1      50.350  19.332  20.249  0.00  0.00    -0.327 OA
BRANCH   5   4
ATOM      4  C   UNL     1      50.308  20.590  19.766  0.00  0.00    +0.496 C 
ATOM     40  O   UNL     1      49.313  21.270  19.925  0.00  0.00    -0.507 OA
BRANCH   4   3
ATOM      1  C   UNL     1      52.511  21.565  21.230  0.00  0.00    +0.091 C 
ATOM      2  C   UNL     1      52.512  21.603  19.723  0.00  0.00    +0.067 C 
ATOM      3  C   UNL     1      51.465  21.140  19.046  0.00  0.00    -0.166 C 
ATOM     41  C   UNL     1      51.466  21.178  17.539  0.00  0.00    +0.104 C 
ENDBRANCH   4   3
ENDBRANCH   5   4
ENDBRANCH   6   5
ENDBRANCH   7   6
TORSDOF 6
ENDMDL
MODEL 6
REMARK VINA RESULT:      -5.8      2.735      4.157
REMARK  Name = ZINC95486222
REMARK  13 active torsions:
REMARK  status: ('A' for Active; 'I' for Inactive)
REMARK    1  A    between atoms: C1_1  and  C2_2
REMARK    2  A    between atoms: C3_3  and  C4_4
REMARK    3  A    between atoms: C3_3  and  C5_5
REMARK    4  A    between atoms: C5_5  and  O2_7
REMARK    5  A    between atoms: O2_7  and  C6_8
REMARK    6  A    between atoms: C6_8  and  C7_9
REMARK    7  A    between atoms: N2_26  and  C18_27
REMARK    8  A    between atoms: C20_30  and  O5_35
REMARK    9  A    between atoms: C21_31  and  C23_34
REMARK   10  A    between atoms: O5_35  and  C24_36
REMARK   11  A    between atoms: C26_40  and  C30_46
REMARK   12  A    between atoms: C27_41  and  O9_44
REMARK   13  A    between atoms: O9_44  and  C29_45
REMARK                            x       y       z     vdW  Elec       q    Type
REMARK                         _______ _______ _______ _____ _____    ______ ____
ROOT
ATOM      7  C   UNL     1      49.202  15.245  17.588  0.00  0.00    +0.208 C 
ATOM      8  C   UNL     1      48.329  14.098  17.156  0.00  0.00    -0.116 C 
ATOM      9  C   UNL     1      47.176  13.810  17.765  0.00  0.00    -0.086 C 
ATOM     10  C   UNL     1      46.352  12.671  17.292  0.00  0.00    +0.416 C 
ATOM     11  C   UNL     1      46.790  11.851  16.160  0.00  0.00    -0.144 C 
ATOM     12  C   UNL     1      45.945  10.696  15.690  0.00  0.00    +0.136 C 
ATOM     13  C   UNL     1      47.955  12.133  15.540  0.00  0.00    +0.062 C 
ATOM     16  O   UNL     1      45.301  12.416  17.848  0.00  0.00    -0.405 OA
ATOM     17  C   UNL     1      46.672  14.612  18.937  0.00  0.00    +0.133 C 
ATOM     18  C   UNL     1      47.403  15.956  19.016  0.00  0.00    +0.108 C 
ATOM     19  C   UNL     1      47.052  16.623  20.351  0.00  0.00    +0.249 C 
ATOM     20  N   UNL     1      48.217  16.526  21.258  0.00  0.00    -0.489 NA
ATOM     21  C   UNL     1      48.617  15.127  21.466  0.00  0.00    +0.184 C 
ATOM     22  C   UNL     1      49.333  17.317  20.722  0.00  0.00    +0.153 C 
ATOM     23  C   UNL     1      48.968  18.795  20.801  0.00  0.00    +0.201 C 
ATOM     24  O   UNL     1      49.058  19.229  22.160  0.00  0.00    -0.846 OA
ATOM     25  C   UNL     1      47.567  19.031  20.298  0.00  0.00    -0.036 C 
ATOM     26  C   UNL     1      47.156  20.429  20.013  0.00  0.00    +0.405 C 
ATOM     27  O   UNL     1      47.947  21.336  20.182  0.00  0.00    -0.393 OA
ATOM     28  C   UNL     1      45.806  20.726  19.528  0.00  0.00    -0.143 C 
ATOM     29  C   UNL     1      45.402  22.149  19.241  0.00  0.00    +0.126 C 
ATOM     30  C   UNL     1      44.924  19.723  19.339  0.00  0.00    +0.046 C 
ATOM     33  C   UNL     1      45.332  18.326  19.623  0.00  0.00    +0.402 C 
ATOM     34  O   UNL     1      44.542  17.419  19.458  0.00  0.00    -0.442 OA
ATOM     35  C   UNL     1      49.621  16.900  19.285  0.00  0.00    +0.127 C 
ATOM     36  C   UNL     1      46.701  18.033  20.108  0.00  0.00    -0.206 C 
ATOM     37  C   UNL     1      48.779  13.271  16.011  0.00  0.00    +0.399 C 
ATOM     38  O   UNL     1      49.827  13.529  15.456  0.00  0.00    -0.410 OA
ATOM     39  N   UNL     1      48.848  15.696  18.941  0.00  0.00    -0.496 NA
ENDROOT
BRANCH  13  14
ATOM     14  O   UNL     1      48.370  11.380  14.494  0.00  0.00    -0.310 OA
ATOM     15  C   UNL     1      49.325  10.354  14.772  0.00  0.00    +0.245 C 
ENDBRANCH  13  14
BRANCH  30  31
ATOM     31  O   UNL     1      43.674  19.989  18.893  0.00  0.00    -0.316 OA
ATOM     32  C   UNL     1      42.628  20.005  19.866  0.00  0.00    +0.236 C 
ENDBRANCH  30  31
BRANCH   7   6
ATOM      6  C   UNL     1      50.665  14.795  17.575  0.00  0.00    +0.242 C 
BRANCH   6   5
ATOM      5  O   UNL     1      50.910  13.943  18.696  0.00  0.00    -0.327 OA
BRANCH   5   4
ATOM      4  C   UNL     1      51.833  12.974  18.537  0.00  0.00    +0.496 C 
ATOM     40  O   UNL     1      52.188  12.650  17.421  0.00  0.00    -0.507 OA
BRANCH   4   3
ATOM      1  C   UNL     1      54.159  14.034  19.727  0.00  0.00    +0.091 C 
ATOM      2  C   UNL     1      53.506  12.796  20.285  0.00  0.00    +0.067 C 
ATOM      3  C   UNL     1      52.409  12.307  19.714  0.00  0.00    -0.166 C 
ATOM     41  C   UNL     1      51.756  11.069  20.272  0.00  0.00    +0.104 C 
ENDBRANCH   4   3
ENDBRANCH   5   4
ENDBRANCH   6   5
ENDBRANCH   7   6
TORSDOF 6
ENDMDL
MODEL 7
REMARK VINA RESULT:      -5.7      1.973      7.893
REMARK  Name = ZINC95486222
REMARK  13 active torsions:
REMARK  status: ('A' for Active; 'I' for Inactive)
REMARK    1  A    between atoms: C1_1  and  C2_2
REMARK    2  A    between atoms: C3_3  and  C4_4
REMARK    3  A    between atoms: C3_3  and  C5_5
REMARK    4  A    between atoms: C5_5  and  O2_7
REMARK    5  A    between atoms: O2_7  and  C6_8
REMARK    6  A    between atoms: C6_8  and  C7_9
REMARK    7  A    between atoms: N2_26  and  C18_27
REMARK    8  A    between atoms: C20_30  and  O5_35
REMARK    9  A    between atoms: C21_31  and  C23_34
REMARK   10  A    between atoms: O5_35  and  C24_36
REMARK   11  A    between atoms: C26_40  and  C30_46
REMARK   12  A    between atoms: C27_41  and  O9_44
REMARK   13  A    between atoms: O9_44  and  C29_45
REMARK                            x       y       z     vdW  Elec       q    Type
REMARK                         _______ _______ _______ _____ _____    ______ ____
ROOT
ATOM      7  C   UNL     1      47.527  17.816  19.294  0.00  0.00    +0.208 C 
ATOM      8  C   UNL     1      48.967  18.194  19.077  0.00  0.00    -0.116 C 
ATOM      9  C   UNL     1      49.957  17.300  19.139  0.00  0.00    -0.086 C 
ATOM     10  C   UNL     1      51.358  17.727  18.909  0.00  0.00    +0.416 C 
ATOM     11  C   UNL     1      51.674  19.128  18.617  0.00  0.00    -0.144 C 
ATOM     12  C   UNL     1      53.101  19.550  18.386  0.00  0.00    +0.136 C 
ATOM     13  C   UNL     1      50.680  20.039  18.554  0.00  0.00    +0.062 C 
ATOM     16  O   UNL     1      52.255  16.908  18.963  0.00  0.00    -0.405 OA
ATOM     17  C   UNL     1      49.699  15.846  19.440  0.00  0.00    +0.133 C 
ATOM     18  C   UNL     1      48.218  15.513  19.234  0.00  0.00    +0.108 C 
ATOM     19  C   UNL     1      47.951  14.111  19.791  0.00  0.00    +0.249 C 
ATOM     20  N   UNL     1      47.211  14.233  21.066  0.00  0.00    -0.489 NA
ATOM     21  C   UNL     1      47.953  15.046  22.040  0.00  0.00    +0.184 C 
ATOM     22  C   UNL     1      45.878  14.800  20.816  0.00  0.00    +0.153 C 
ATOM     23  C   UNL     1      45.050  13.781  20.042  0.00  0.00    +0.201 C 
ATOM     24  O   UNL     1      44.651  12.731  20.927  0.00  0.00    -0.846 OA
ATOM     25  C   UNL     1      45.844  13.193  18.904  0.00  0.00    -0.036 C 
ATOM     26  C   UNL     1      45.111  12.424  17.867  0.00  0.00    +0.405 C 
ATOM     27  O   UNL     1      43.906  12.294  17.954  0.00  0.00    -0.393 OA
ATOM     28  C   UNL     1      45.826  11.822  16.739  0.00  0.00    -0.143 C 
ATOM     29  C   UNL     1      45.070  11.045  15.692  0.00  0.00    +0.126 C 
ATOM     30  C   UNL     1      47.164  11.964  16.639  0.00  0.00    +0.046 C 
ATOM     33  C   UNL     1      47.898  12.732  17.673  0.00  0.00    +0.402 C 
ATOM     34  O   UNL     1      49.103  12.861  17.591  0.00  0.00    -0.442 OA
ATOM     35  C   UNL     1      46.007  16.104  20.039  0.00  0.00    +0.127 C 
ATOM     36  C   UNL     1      47.168  13.343  18.808  0.00  0.00    -0.206 C 
ATOM     37  C   UNL     1      49.279  19.613  18.782  0.00  0.00    +0.399 C 
ATOM     38  O   UNL     1      48.383  20.429  18.726  0.00  0.00    -0.410 OA
ATOM     39  N   UNL     1      47.419  16.511  19.961  0.00  0.00    -0.496 NA
ENDROOT
BRANCH  13  14
ATOM     14  O   UNL     1      50.961  21.335  18.285  0.00  0.00    -0.310 OA
ATOM     15  C   UNL     1      51.066  21.704  16.908  0.00  0.00    +0.245 C 
ENDBRANCH  13  14
BRANCH  30  31
ATOM     31  O   UNL     1      47.832  11.410  15.601  0.00  0.00    -0.316 OA
ATOM     32  C   UNL     1      48.091  12.250  14.474  0.00  0.00    +0.236 C 
ENDBRANCH  30  31
BRANCH   7   6
ATOM      6  C   UNL     1      46.854  18.881  20.163  0.00  0.00    +0.242 C 
BRANCH   6   5
ATOM      5  O   UNL     1      45.553  19.165  19.645  0.00  0.00    -0.327 OA
BRANCH   5   4
ATOM      4  C   UNL     1      44.637  19.634  20.516  0.00  0.00    +0.496 C 
ATOM     40  O   UNL     1      44.879  20.623  21.180  0.00  0.00    -0.507 OA
BRANCH   4   3
ATOM      1  C   UNL     1      42.493  20.340  18.828  0.00  0.00    +0.091 C 
ATOM      2  C   UNL     1      42.325  19.270  19.876  0.00  0.00    +0.067 C 
ATOM      3  C   UNL     1      43.346  18.947  20.666  0.00  0.00    -0.166 C 
ATOM     41  C   UNL     1      43.179  17.877  21.714  0.00  0.00    +0.104 C 
ENDBRANCH   4   3
ENDBRANCH   5   4
ENDBRANCH   6   5
ENDBRANCH   7   6
TORSDOF 6
ENDMDL
MODEL 8
REMARK VINA RESULT:      -5.7      2.528      8.486
REMARK  Name = ZINC95486222
REMARK  13 active torsions:
REMARK  status: ('A' for Active; 'I' for Inactive)
REMARK    1  A    between atoms: C1_1  and  C2_2
REMARK    2  A    between atoms: C3_3  and  C4_4
REMARK    3  A    between atoms: C3_3  and  C5_5
REMARK    4  A    between atoms: C5_5  and  O2_7
REMARK    5  A    between atoms: O2_7  and  C6_8
REMARK    6  A    between atoms: C6_8  and  C7_9
REMARK    7  A    between atoms: N2_26  and  C18_27
REMARK    8  A    between atoms: C20_30  and  O5_35
REMARK    9  A    between atoms: C21_31  and  C23_34
REMARK   10  A    between atoms: O5_35  and  C24_36
REMARK   11  A    between atoms: C26_40  and  C30_46
REMARK   12  A    between atoms: C27_41  and  O9_44
REMARK   13  A    between atoms: O9_44  and  C29_45
REMARK                            x       y       z     vdW  Elec       q    Type
REMARK                         _______ _______ _______ _____ _____    ______ ____
ROOT
ATOM      7  C   UNL     1      48.529  17.365  18.551  0.00  0.00    +0.208 C 
ATOM      8  C   UNL     1      49.628  17.722  19.515  0.00  0.00    -0.116 C 
ATOM      9  C   UNL     1      50.158  16.828  20.355  0.00  0.00    -0.086 C 
ATOM     10  C   UNL     1      51.245  17.233  21.279  0.00  0.00    +0.416 C 
ATOM     11  C   UNL     1      51.746  18.610  21.285  0.00  0.00    -0.144 C 
ATOM     12  C   UNL     1      52.850  19.009  22.229  0.00  0.00    +0.136 C 
ATOM     13  C   UNL     1      51.216  19.520  20.441  0.00  0.00    +0.062 C 
ATOM     16  O   UNL     1      51.726  16.415  22.038  0.00  0.00    -0.405 OA
ATOM     17  C   UNL     1      49.683  15.399  20.401  0.00  0.00    +0.133 C 
ATOM     18  C   UNL     1      48.888  15.061  19.136  0.00  0.00    +0.108 C 
ATOM     19  C   UNL     1      48.212  13.699  19.334  0.00  0.00    +0.249 C 
ATOM     20  N   UNL     1      46.765  13.909  19.561  0.00  0.00    -0.489 NA
ATOM     21  C   UNL     1      46.527  14.781  20.720  0.00  0.00    +0.184 C 
ATOM     22  C   UNL     1      46.147  14.464  18.350  0.00  0.00    +0.153 C 
ATOM     23  C   UNL     1      46.165  13.401  17.259  0.00  0.00    +0.201 C 
ATOM     24  O   UNL     1      45.173  12.414  17.548  0.00  0.00    -0.846 OA
ATOM     25  C   UNL     1      47.515  12.735  17.178  0.00  0.00    -0.036 C 
ATOM     26  C   UNL     1      47.811  11.903  15.984  0.00  0.00    +0.405 C 
ATOM     27  O   UNL     1      46.975  11.785  15.110  0.00  0.00    -0.393 OA
ATOM     28  C   UNL     1      49.102  11.225  15.849  0.00  0.00    -0.143 C 
ATOM     29  C   UNL     1      49.391  10.384  14.632  0.00  0.00    +0.126 C 
ATOM     30  C   UNL     1      50.034  11.353  16.816  0.00  0.00    +0.046 C 
ATOM     33  C   UNL     1      49.740  12.184  18.008  0.00  0.00    +0.402 C 
ATOM     34  O   UNL     1      50.573  12.301  18.885  0.00  0.00    -0.442 OA
ATOM     35  C   UNL     1      46.899  15.714  17.910  0.00  0.00    +0.127 C 
ATOM     36  C   UNL     1      48.434  12.872  18.136  0.00  0.00    -0.206 C 
ATOM     37  C   UNL     1      50.131  19.116  19.516  0.00  0.00    +0.399 C 
ATOM     38  O   UNL     1      49.651  19.931  18.756  0.00  0.00    -0.410 OA
ATOM     39  N   UNL     1      47.875  16.108  18.938  0.00  0.00    -0.496 NA
ENDROOT
BRANCH  13  14
ATOM     14  O   UNL     1      51.672  20.794  20.440  0.00  0.00    -0.310 OA
ATOM     15  C   UNL     1      52.586  21.155  19.402  0.00  0.00    +0.245 C 
ENDBRANCH  13  14
BRANCH  30  31
ATOM     31  O   UNL     1      51.228  10.729  16.700  0.00  0.00    -0.316 OA
ATOM     32  C   UNL     1      52.278  11.452  16.054  0.00  0.00    +0.236 C 
ENDBRANCH  30  31
BRANCH   7   6
ATOM      6  C   UNL     1      47.490  18.489  18.538  0.00  0.00    +0.242 C 
BRANCH   6   5
ATOM      5  O   UNL     1      46.792  18.506  19.784  0.00  0.00    -0.327 OA
BRANCH   5   4
ATOM      4  C   UNL     1      45.487  18.844  19.749  0.00  0.00    +0.496 C 
ATOM     40  O   UNL     1      44.756  18.362  18.906  0.00  0.00    -0.507 OA
BRANCH   4   3
ATOM      1  C   UNL     1      45.460  21.594  19.132  0.00  0.00    +0.091 C 
ATOM      2  C   UNL     1      44.929  21.098  20.453  0.00  0.00    +0.067 C 
ATOM      3  C   UNL     1      44.949  19.797  20.730  0.00  0.00    -0.166 C 
ATOM     41  C   UNL     1      44.419  19.300  22.051  0.00  0.00    +0.104 C 
ENDBRANCH   4   3
ENDBRANCH   5   4
ENDBRANCH   6   5
ENDBRANCH   7   6
TORSDOF 6
ENDMDL
MODEL 9
REMARK VINA RESULT:      -5.7      3.487      8.294
REMARK  Name = ZINC95486222
REMARK  13 active torsions:
REMARK  status: ('A' for Active; 'I' for Inactive)
REMARK    1  A    between atoms: C1_1  and  C2_2
REMARK    2  A    between atoms: C3_3  and  C4_4
REMARK    3  A    between atoms: C3_3  and  C5_5
REMARK    4  A    between atoms: C5_5  and  O2_7
REMARK    5  A    between atoms: O2_7  and  C6_8
REMARK    6  A    between atoms: C6_8  and  C7_9
REMARK    7  A    between atoms: N2_26  and  C18_27
REMARK    8  A    between atoms: C20_30  and  O5_35
REMARK    9  A    between atoms: C21_31  and  C23_34
REMARK   10  A    between atoms: O5_35  and  C24_36
REMARK   11  A    between atoms: C26_40  and  C30_46
REMARK   12  A    between atoms: C27_41  and  O9_44
REMARK   13  A    between atoms: O9_44  and  C29_45
REMARK                            x       y       z     vdW  Elec       q    Type
REMARK                         _______ _______ _______ _____ _____    ______ ____
ROOT
ATOM      7  C   UNL     1      49.835  17.278  21.035  0.00  0.00    +0.208 C 
ATOM      8  C   UNL     1      48.580  17.671  20.304  0.00  0.00    -0.116 C 
ATOM      9  C   UNL     1      48.455  17.542  18.981  0.00  0.00    -0.086 C 
ATOM     10  C   UNL     1      47.191  17.938  18.313  0.00  0.00    +0.416 C 
ATOM     11  C   UNL     1      46.072  18.476  19.091  0.00  0.00    -0.144 C 
ATOM     12  C   UNL     1      44.795  18.877  18.401  0.00  0.00    +0.136 C 
ATOM     13  C   UNL     1      46.191  18.613  20.428  0.00  0.00    +0.062 C 
ATOM     16  O   UNL     1      47.082  17.815  17.109  0.00  0.00    -0.405 OA
ATOM     17  C   UNL     1      49.570  17.000  18.124  0.00  0.00    +0.133 C 
ATOM     18  C   UNL     1      50.601  16.270  18.991  0.00  0.00    +0.108 C 
ATOM     19  C   UNL     1      51.831  15.962  18.130  0.00  0.00    +0.249 C 
ATOM     20  N   UNL     1      52.928  16.879  18.514  0.00  0.00    -0.489 NA
ATOM     21  C   UNL     1      52.527  18.284  18.363  0.00  0.00    +0.184 C 
ATOM     22  C   UNL     1      53.351  16.598  19.892  0.00  0.00    +0.153 C 
ATOM     23  C   UNL     1      54.027  15.232  19.929  0.00  0.00    +0.201 C 
ATOM     24  O   UNL     1      55.326  15.335  19.344  0.00  0.00    -0.846 OA
ATOM     25  C   UNL     1      53.221  14.212  19.167  0.00  0.00    -0.036 C 
ATOM     26  C   UNL     1      53.557  12.778  19.352  0.00  0.00    +0.405 C 
ATOM     27  O   UNL     1      54.456  12.464  20.107  0.00  0.00    -0.393 OA
ATOM     28  C   UNL     1      52.816  11.739  18.635  0.00  0.00    -0.143 C 
ATOM     29  C   UNL     1      53.167  10.286  18.833  0.00  0.00    +0.126 C 
ATOM     30  C   UNL     1      51.817  12.083  17.795  0.00  0.00    +0.046 C 
ATOM     33  C   UNL     1      51.479  13.514  17.609  0.00  0.00    +0.402 C 
ATOM     34  O   UNL     1      50.583  13.831  16.853  0.00  0.00    -0.442 OA
ATOM     35  C   UNL     1      52.147  16.639  20.824  0.00  0.00    +0.127 C 
ATOM     36  C   UNL     1      52.229  14.560  18.342  0.00  0.00    -0.206 C 
ATOM     37  C   UNL     1      47.452  18.215  21.097  0.00  0.00    +0.399 C 
ATOM     38  O   UNL     1      47.562  18.336  22.300  0.00  0.00    -0.410 OA
ATOM     39  N   UNL     1      50.968  17.153  20.108  0.00  0.00    -0.496 NA
ENDROOT
BRANCH  13  14
ATOM     14  O   UNL     1      45.163  19.109  21.156  0.00  0.00    -0.310 OA
ATOM     15  C   UNL     1      45.185  20.510  21.437  0.00  0.00    +0.245 C 
ENDBRANCH  13  14
BRANCH  30  31
ATOM     31  O   UNL     1      51.128  11.128  17.128  0.00  0.00    -0.316 OA
ATOM     32  C   UNL     1      49.879  10.720  17.687  0.00  0.00    +0.236 C 
ENDBRANCH  30  31
BRANCH   7   6
ATOM      6  C   UNL     1      50.160  18.346  22.083  0.00  0.00    +0.242 C 
BRANCH   6   5
ATOM      5  O   UNL     1      51.003  19.342  21.501  0.00  0.00    -0.327 OA
BRANCH   5   4
ATOM      4  C   UNL     1      50.420  20.506  21.149  0.00  0.00    +0.496 C 
ATOM     40  O   UNL     1      49.793  21.146  21.971  0.00  0.00    -0.507 OA
BRANCH   4   3
ATOM      1  C   UNL     1      52.796  21.792  20.345  0.00  0.00    +0.091 C 
ATOM      2  C   UNL     1      51.656  21.610  19.377  0.00  0.00    +0.067 C 
ATOM      3  C   UNL     1      50.541  21.001  19.770  0.00  0.00    -0.166 C 
ATOM     41  C   UNL     1      49.400  20.819  18.802  0.00  0.00    +0.104 C 
ENDBRANCH   4   3
ENDBRANCH   5   4
ENDBRANCH   6   5
ENDBRANCH   7   6
TORSDOF 6
ENDMDL
