MODEL 1
REMARK VINA RESULT:      -5.6      0.000      0.000
REMARK  Name = ZINC95485884
REMARK  9 active torsions:
REMARK  status: ('A' for Active; 'I' for Inactive)
REMARK    1  A    between atoms: C1_1  and  C2_2
REMARK    2  A    between atoms: C4_4  and  C18_23
REMARK    3  A    between atoms: C4_4  and  C19_24
REMARK    4  A    between atoms: C6_6  and  C8_9
REMARK    5  A    between atoms: C8_9  and  C9_10
REMARK    6  A    between atoms: C10_11  and  O4_21
REMARK    7  A    between atoms: C11_12  and  C16_19
REMARK    8  A    between atoms: C11_12  and  C17_20
REMARK    9  A    between atoms: C13_14  and  C15_17
REMARK                            x       y       z     vdW  Elec       q    Type
REMARK                         _______ _______ _______ _____ _____    ______ ____
ROOT
ATOM     11  C   UNL     1      46.759  18.601  18.160  0.00  0.00    +0.145 C 
ENDROOT
BRANCH  11  10
ATOM      1  C   UNL     1      51.170  16.747  16.930  0.00  0.00    +0.082 C 
ATOM      2  C   UNL     1      50.466  17.405  18.120  0.00  0.00    -0.042 C 
ATOM      3  C   UNL     1      51.029  18.793  18.343  0.00  0.00    +0.378 C 
ATOM      4  O   UNL     1      52.023  19.159  17.764  0.00  0.00    -0.408 OA
ATOM      5  C   UNL     1      50.311  19.709  19.312  0.00  0.00    -0.158 C 
ATOM      6  C   UNL     1      50.875  21.126  19.197  0.00  0.00    +0.087 C 
ATOM      7  C   UNL     1      50.493  19.194  20.741  0.00  0.00    +0.100 C 
ATOM      8  C   UNL     1      48.841  19.712  18.953  0.00  0.00    +0.381 C 
ATOM      9  O   UNL     1      48.237  20.750  18.819  0.00  0.00    -0.407 OA
ATOM     10  C   UNL     1      48.146  18.380  18.766  0.00  0.00    -0.050 C 
ATOM     25  C   UNL     1      48.986  17.539  17.829  0.00  0.00    +0.370 C 
ATOM     26  O   UNL     1      48.490  16.992  16.874  0.00  0.00    -0.390 OA
ENDBRANCH  11  10
BRANCH  11  12
ATOM     12  C   UNL     1      45.703  18.262  19.182  0.00  0.00    -0.319 C 
ATOM     13  C   UNL     1      45.004  19.237  19.777  0.00  0.00    +0.197 C 
ATOM     16  C   UNL     1      43.935  18.967  20.789  0.00  0.00    -0.032 C 
ATOM     17  C   UNL     1      44.078  19.970  21.936  0.00  0.00    +0.090 C 
ATOM     18  C   UNL     1      42.570  19.169  20.130  0.00  0.00    +0.092 C 
ATOM     19  C   UNL     1      44.001  17.581  21.349  0.00  0.00    +0.261 C 
ATOM     20  O   UNL     1      43.334  17.315  22.492  0.00  0.00    -0.435 OA
ATOM     21  C   UNL     1      44.692  16.593  20.767  0.00  0.00    -0.089 C 
ATOM     22  C   UNL     1      44.707  15.216  21.376  0.00  0.00    +0.186 C 
ATOM     23  C   UNL     1      45.432  16.863  19.527  0.00  0.00    +0.413 C 
ATOM     24  O   UNL     1      45.812  15.953  18.809  0.00  0.00    -0.401 OA
BRANCH  13  14
ATOM     14  O   UNL     1      45.274  20.517  19.450  0.00  0.00    -0.455 OA
ATOM     15  H   UNL     1      44.526  20.990  19.060  0.00  0.00    +0.404 HD
ENDBRANCH  13  14
ENDBRANCH  11  12
TORSDOF 3
ENDMDL
MODEL 2
REMARK VINA RESULT:      -5.5      1.603      6.529
REMARK  Name = ZINC95485884
REMARK  9 active torsions:
REMARK  status: ('A' for Active; 'I' for Inactive)
REMARK    1  A    between atoms: C1_1  and  C2_2
REMARK    2  A    between atoms: C4_4  and  C18_23
REMARK    3  A    between atoms: C4_4  and  C19_24
REMARK    4  A    between atoms: C6_6  and  C8_9
REMARK    5  A    between atoms: C8_9  and  C9_10
REMARK    6  A    between atoms: C10_11  and  O4_21
REMARK    7  A    between atoms: C11_12  and  C16_19
REMARK    8  A    between atoms: C11_12  and  C17_20
REMARK    9  A    between atoms: C13_14  and  C15_17
REMARK                            x       y       z     vdW  Elec       q    Type
REMARK                         _______ _______ _______ _____ _____    ______ ____
ROOT
ATOM     11  C   UNL     1      48.985  18.314  20.365  0.00  0.00    +0.145 C 
ENDROOT
BRANCH  11  10
ATOM      1  C   UNL     1      45.079  15.289  20.361  0.00  0.00    +0.082 C 
ATOM      2  C   UNL     1      45.562  16.579  19.694  0.00  0.00    -0.042 C 
ATOM      3  C   UNL     1      44.747  17.752  20.199  0.00  0.00    +0.378 C 
ATOM      4  O   UNL     1      43.751  17.576  20.859  0.00  0.00    -0.408 OA
ATOM      5  C   UNL     1      45.215  19.150  19.854  0.00  0.00    -0.158 C 
ATOM      6  C   UNL     1      44.420  20.176  20.664  0.00  0.00    +0.087 C 
ATOM      7  C   UNL     1      45.017  19.407  18.358  0.00  0.00    +0.100 C 
ATOM      8  C   UNL     1      46.684  19.252  20.201  0.00  0.00    +0.381 C 
ATOM      9  O   UNL     1      47.104  20.172  20.862  0.00  0.00    -0.407 OA
ATOM     10  C   UNL     1      47.616  18.170  19.697  0.00  0.00    -0.050 C 
ATOM     25  C   UNL     1      47.012  16.828  20.050  0.00  0.00    +0.370 C 
ATOM     26  O   UNL     1      47.669  15.979  20.603  0.00  0.00    -0.390 OA
ENDBRANCH  11  10
BRANCH  11  12
ATOM     12  C   UNL     1      50.032  18.584  19.314  0.00  0.00    -0.319 C 
ATOM     13  C   UNL     1      50.387  19.843  19.026  0.00  0.00    +0.197 C 
ATOM     16  C   UNL     1      51.427  20.179  18.004  0.00  0.00    -0.032 C 
ATOM     17  C   UNL     1      50.937  21.366  17.173  0.00  0.00    +0.090 C 
ATOM     18  C   UNL     1      52.714  20.584  18.726  0.00  0.00    +0.092 C 
ATOM     19  C   UNL     1      51.729  19.037  17.084  0.00  0.00    +0.261 C 
ATOM     20  O   UNL     1      52.376  19.294  15.929  0.00  0.00    -0.435 OA
ATOM     21  C   UNL     1      51.384  17.772  17.357  0.00  0.00    -0.089 C 
ATOM     22  C   UNL     1      51.728  16.667  16.393  0.00  0.00    +0.186 C 
ATOM     23  C   UNL     1      50.671  17.472  18.606  0.00  0.00    +0.413 C 
ATOM     24  O   UNL     1      50.610  16.333  19.037  0.00  0.00    -0.401 OA
BRANCH  13  14
ATOM     14  O   UNL     1      49.781  20.852  19.685  0.00  0.00    -0.455 OA
ATOM     15  H   UNL     1      50.376  21.573  19.932  0.00  0.00    +0.404 HD
ENDBRANCH  13  14
ENDBRANCH  11  12
TORSDOF 3
ENDMDL
MODEL 3
REMARK VINA RESULT:      -5.4      3.514      5.907
REMARK  Name = ZINC95485884
REMARK  9 active torsions:
REMARK  status: ('A' for Active; 'I' for Inactive)
REMARK    1  A    between atoms: C1_1  and  C2_2
REMARK    2  A    between atoms: C4_4  and  C18_23
REMARK    3  A    between atoms: C4_4  and  C19_24
REMARK    4  A    between atoms: C6_6  and  C8_9
REMARK    5  A    between atoms: C8_9  and  C9_10
REMARK    6  A    between atoms: C10_11  and  O4_21
REMARK    7  A    between atoms: C11_12  and  C16_19
REMARK    8  A    between atoms: C11_12  and  C17_20
REMARK    9  A    between atoms: C13_14  and  C15_17
REMARK                            x       y       z     vdW  Elec       q    Type
REMARK                         _______ _______ _______ _____ _____    ______ ____
ROOT
ATOM     11  C   UNL     1      44.834  18.603  22.168  0.00  0.00    +0.145 C 
ENDROOT
BRANCH  11  10
ATOM      1  C   UNL     1      41.365  20.393  19.139  0.00  0.00    +0.082 C 
ATOM      2  C   UNL     1      42.889  20.318  19.261  0.00  0.00    -0.042 C 
ATOM      3  C   UNL     1      43.446  21.695  19.557  0.00  0.00    +0.378 C 
ATOM      4  O   UNL     1      42.748  22.677  19.478  0.00  0.00    -0.408 OA
ATOM      5  C   UNL     1      44.904  21.807  19.954  0.00  0.00    -0.158 C 
ATOM      6  C   UNL     1      45.194  23.222  20.457  0.00  0.00    +0.087 C 
ATOM      7  C   UNL     1      45.794  21.493  18.749  0.00  0.00    +0.100 C 
ATOM      8  C   UNL     1      45.167  20.807  21.059  0.00  0.00    +0.381 C 
ATOM      9  O   UNL     1      45.724  21.140  22.077  0.00  0.00    -0.407 OA
ATOM     10  C   UNL     1      44.714  19.377  20.854  0.00  0.00    -0.050 C 
ATOM     25  C   UNL     1      43.268  19.402  20.405  0.00  0.00    +0.370 C 
ATOM     26  O   UNL     1      42.438  18.712  20.947  0.00  0.00    -0.390 OA
ENDBRANCH  11  10
BRANCH  11  12
ATOM     12  C   UNL     1      45.577  17.313  21.925  0.00  0.00    -0.319 C 
ATOM     13  C   UNL     1      44.908  16.156  21.841  0.00  0.00    +0.197 C 
ATOM     16  C   UNL     1      45.583  14.845  21.588  0.00  0.00    -0.032 C 
ATOM     17  C   UNL     1      44.965  13.787  22.505  0.00  0.00    +0.090 C 
ATOM     18  C   UNL     1      45.339  14.436  20.135  0.00  0.00    +0.092 C 
ATOM     19  C   UNL     1      47.059  14.894  21.835  0.00  0.00    +0.261 C 
ATOM     20  O   UNL     1      47.728  13.731  21.978  0.00  0.00    -0.435 OA
ATOM     21  C   UNL     1      47.745  16.041  21.920  0.00  0.00    -0.089 C 
ATOM     22  C   UNL     1      49.232  16.019  22.157  0.00  0.00    +0.186 C 
ATOM     23  C   UNL     1      47.036  17.318  21.775  0.00  0.00    +0.413 C 
ATOM     24  O   UNL     1      47.640  18.351  21.540  0.00  0.00    -0.401 OA
BRANCH  13  14
ATOM     14  O   UNL     1      43.568  16.173  21.989  0.00  0.00    -0.455 OA
ATOM     15  H   UNL     1      43.267  15.943  22.879  0.00  0.00    +0.404 HD
ENDBRANCH  13  14
ENDBRANCH  11  12
TORSDOF 3
ENDMDL
MODEL 4
REMARK VINA RESULT:      -5.4      2.316      4.344
REMARK  Name = ZINC95485884
REMARK  9 active torsions:
REMARK  status: ('A' for Active; 'I' for Inactive)
REMARK    1  A    between atoms: C1_1  and  C2_2
REMARK    2  A    between atoms: C4_4  and  C18_23
REMARK    3  A    between atoms: C4_4  and  C19_24
REMARK    4  A    between atoms: C6_6  and  C8_9
REMARK    5  A    between atoms: C8_9  and  C9_10
REMARK    6  A    between atoms: C10_11  and  O4_21
REMARK    7  A    between atoms: C11_12  and  C16_19
REMARK    8  A    between atoms: C11_12  and  C17_20
REMARK    9  A    between atoms: C13_14  and  C15_17
REMARK                            x       y       z     vdW  Elec       q    Type
REMARK                         _______ _______ _______ _____ _____    ______ ____
ROOT
ATOM     11  C   UNL     1      48.470  19.749  20.767  0.00  0.00    +0.145 C 
ENDROOT
BRANCH  11  10
ATOM      1  C   UNL     1      53.020  21.670  20.857  0.00  0.00    +0.082 C 
ATOM      2  C   UNL     1      51.832  21.517  19.905  0.00  0.00    -0.042 C 
ATOM      3  C   UNL     1      52.185  20.544  18.800  0.00  0.00    +0.378 C 
ATOM      4  O   UNL     1      53.320  20.161  18.649  0.00  0.00    -0.408 OA
ATOM      5  C   UNL     1      51.075  20.063  17.888  0.00  0.00    -0.158 C 
ATOM      6  C   UNL     1      51.581  18.906  17.025  0.00  0.00    +0.087 C 
ATOM      7  C   UNL     1      50.608  21.212  16.992  0.00  0.00    +0.100 C 
ATOM      8  C   UNL     1      49.928  19.591  18.755  0.00  0.00    +0.381 C 
ATOM      9  O   UNL     1      49.415  18.513  18.572  0.00  0.00    -0.407 OA
ATOM     10  C   UNL     1      49.439  20.506  19.858  0.00  0.00    -0.050 C 
ATOM     25  C   UNL     1      50.641  20.963  20.657  0.00  0.00    +0.370 C 
ATOM     26  O   UNL     1      50.650  20.884  21.862  0.00  0.00    -0.390 OA
ENDBRANCH  11  10
BRANCH  11  12
ATOM     12  C   UNL     1      47.093  20.350  20.646  0.00  0.00    -0.319 C 
ATOM     13  C   UNL     1      46.104  19.657  20.066  0.00  0.00    +0.197 C 
ATOM     16  C   UNL     1      44.713  20.190  19.926  0.00  0.00    -0.032 C 
ATOM     17  C   UNL     1      44.193  19.851  18.527  0.00  0.00    +0.090 C 
ATOM     18  C   UNL     1      43.817  19.507  20.960  0.00  0.00    +0.092 C 
ATOM     19  C   UNL     1      44.635  21.672  20.124  0.00  0.00    +0.261 C 
ATOM     20  O   UNL     1      43.532  22.322  19.698  0.00  0.00    -0.435 OA
ATOM     21  C   UNL     1      45.612  22.380  20.704  0.00  0.00    -0.089 C 
ATOM     22  C   UNL     1      45.465  23.868  20.885  0.00  0.00    +0.186 C 
ATOM     23  C   UNL     1      46.824  21.694  21.168  0.00  0.00    +0.413 C 
ATOM     24  O   UNL     1      47.586  22.225  21.958  0.00  0.00    -0.401 OA
BRANCH  13  14
ATOM     14  O   UNL     1      46.374  18.426  19.587  0.00  0.00    -0.455 OA
ATOM     15  H   UNL     1      46.094  17.707  20.171  0.00  0.00    +0.404 HD
ENDBRANCH  13  14
ENDBRANCH  11  12
TORSDOF 3
ENDMDL
MODEL 5
REMARK VINA RESULT:      -5.3      2.936      6.667
REMARK  Name = ZINC95485884
REMARK  9 active torsions:
REMARK  status: ('A' for Active; 'I' for Inactive)
REMARK    1  A    between atoms: C1_1  and  C2_2
REMARK    2  A    between atoms: C4_4  and  C18_23
REMARK    3  A    between atoms: C4_4  and  C19_24
REMARK    4  A    between atoms: C6_6  and  C8_9
REMARK    5  A    between atoms: C8_9  and  C9_10
REMARK    6  A    between atoms: C10_11  and  O4_21
REMARK    7  A    between atoms: C11_12  and  C16_19
REMARK    8  A    between atoms: C11_12  and  C17_20
REMARK    9  A    between atoms: C13_14  and  C15_17
REMARK                            x       y       z     vdW  Elec       q    Type
REMARK                         _______ _______ _______ _____ _____    ______ ____
ROOT
ATOM     11  C   UNL     1      50.189  16.056  18.654  0.00  0.00    +0.145 C 
ENDROOT
BRANCH  11  10
ATOM      1  C   UNL     1      47.338  13.230  15.775  0.00  0.00    +0.082 C 
ATOM      2  C   UNL     1      47.229  14.440  16.706  0.00  0.00    -0.042 C 
ATOM      3  C   UNL     1      46.474  14.051  17.961  0.00  0.00    +0.378 C 
ATOM      4  O   UNL     1      45.898  12.993  18.035  0.00  0.00    -0.408 OA
ATOM      5  C   UNL     1      46.461  15.027  19.119  0.00  0.00    -0.158 C 
ATOM      6  C   UNL     1      45.881  14.347  20.360  0.00  0.00    +0.087 C 
ATOM      7  C   UNL     1      45.616  16.250  18.756  0.00  0.00    +0.100 C 
ATOM      8  C   UNL     1      47.888  15.453  19.389  0.00  0.00    +0.381 C 
ATOM      9  O   UNL     1      48.345  15.419  20.506  0.00  0.00    -0.407 OA
ATOM     10  C   UNL     1      48.728  15.926  18.221  0.00  0.00    -0.050 C 
ATOM     25  C   UNL     1      48.612  14.900  17.114  0.00  0.00    +0.370 C 
ATOM     26  O   UNL     1      49.596  14.459  16.571  0.00  0.00    -0.390 OA
ENDBRANCH  11  10
BRANCH  11  12
ATOM     12  C   UNL     1      50.664  17.465  18.403  0.00  0.00    -0.319 C 
ATOM     13  C   UNL     1      50.446  18.422  19.315  0.00  0.00    +0.197 C 
ATOM     16  C   UNL     1      50.902  19.835  19.133  0.00  0.00    -0.032 C 
ATOM     17  C   UNL     1      49.785  20.777  19.590  0.00  0.00    +0.090 C 
ATOM     18  C   UNL     1      52.133  20.073  20.011  0.00  0.00    +0.092 C 
ATOM     19  C   UNL     1      51.253  20.155  17.714  0.00  0.00    +0.261 C 
ATOM     20  O   UNL     1      51.347  21.451  17.349  0.00  0.00    -0.435 OA
ATOM     21  C   UNL     1      51.477  19.213  16.790  0.00  0.00    -0.089 C 
ATOM     22  C   UNL     1      51.838  19.603  15.381  0.00  0.00    +0.186 C 
ATOM     23  C   UNL     1      51.372  17.796  17.163  0.00  0.00    +0.413 C 
ATOM     24  O   UNL     1      51.855  16.923  16.462  0.00  0.00    -0.401 OA
BRANCH  13  14
ATOM     14  O   UNL     1      49.787  18.097  20.446  0.00  0.00    -0.455 OA
ATOM     15  H   UNL     1      49.063  17.469  20.313  0.00  0.00    +0.404 HD
ENDBRANCH  13  14
ENDBRANCH  11  12
TORSDOF 3
ENDMDL
MODEL 6
REMARK VINA RESULT:      -5.2      2.693      3.902
REMARK  Name = ZINC95485884
REMARK  9 active torsions:
REMARK  status: ('A' for Active; 'I' for Inactive)
REMARK    1  A    between atoms: C1_1  and  C2_2
REMARK    2  A    between atoms: C4_4  and  C18_23
REMARK    3  A    between atoms: C4_4  and  C19_24
REMARK    4  A    between atoms: C6_6  and  C8_9
REMARK    5  A    between atoms: C8_9  and  C9_10
REMARK    6  A    between atoms: C10_11  and  O4_21
REMARK    7  A    between atoms: C11_12  and  C16_19
REMARK    8  A    between atoms: C11_12  and  C17_20
REMARK    9  A    between atoms: C13_14  and  C15_17
REMARK                            x       y       z     vdW  Elec       q    Type
REMARK                         _______ _______ _______ _____ _____    ______ ____
ROOT
ATOM     11  C   UNL     1      48.325  19.692  20.186  0.00  0.00    +0.145 C 
ENDROOT
BRANCH  11  10
ATOM      1  C   UNL     1      52.779  21.682  20.971  0.00  0.00    +0.082 C 
ATOM      2  C   UNL     1      51.736  21.546  19.859  0.00  0.00    -0.042 C 
ATOM      3  C   UNL     1      52.258  20.620  18.780  0.00  0.00    +0.378 C 
ATOM      4  O   UNL     1      53.411  20.261  18.774  0.00  0.00    -0.408 OA
ATOM      5  C   UNL     1      51.294  20.156  17.707  0.00  0.00    -0.158 C 
ATOM      6  C   UNL     1      51.938  19.040  16.882  0.00  0.00    +0.087 C 
ATOM      7  C   UNL     1      50.930  21.330  16.796  0.00  0.00    +0.100 C 
ATOM      8  C   UNL     1      50.049  19.633  18.391  0.00  0.00    +0.381 C 
ATOM      9  O   UNL     1      49.588  18.555  18.101  0.00  0.00    -0.407 OA
ATOM     10  C   UNL     1      49.394  20.499  19.446  0.00  0.00    -0.050 C 
ATOM     25  C   UNL     1      50.464  20.944  20.419  0.00  0.00    +0.370 C 
ATOM     26  O   UNL     1      50.310  20.821  21.610  0.00  0.00    -0.390 OA
ENDBRANCH  11  10
BRANCH  11  12
ATOM     12  C   UNL     1      46.994  20.389  20.062  0.00  0.00    -0.319 C 
ATOM     13  C   UNL     1      46.667  21.373  20.911  0.00  0.00    +0.197 C 
ATOM     16  C   UNL     1      45.369  22.113  20.834  0.00  0.00    -0.032 C 
ATOM     17  C   UNL     1      44.821  22.296  22.251  0.00  0.00    +0.090 C 
ATOM     18  C   UNL     1      45.624  23.494  20.226  0.00  0.00    +0.092 C 
ATOM     19  C   UNL     1      44.343  21.404  20.006  0.00  0.00    +0.261 C 
ATOM     20  O   UNL     1      43.050  21.771  20.128  0.00  0.00    -0.435 OA
ATOM     21  C   UNL     1      44.651  20.420  19.152  0.00  0.00    -0.089 C 
ATOM     22  C   UNL     1      43.571  19.755  18.339  0.00  0.00    +0.186 C 
ATOM     23  C   UNL     1      46.051  19.999  19.010  0.00  0.00    +0.413 C 
ATOM     24  O   UNL     1      46.417  19.343  18.049  0.00  0.00    -0.401 OA
BRANCH  13  14
ATOM     14  O   UNL     1      47.547  21.712  21.876  0.00  0.00    -0.455 OA
ATOM     15  H   UNL     1      47.820  20.972  22.436  0.00  0.00    +0.404 HD
ENDBRANCH  13  14
ENDBRANCH  11  12
TORSDOF 3
ENDMDL
MODEL 7
REMARK VINA RESULT:      -5.2      2.978      6.409
REMARK  Name = ZINC95485884
REMARK  9 active torsions:
REMARK  status: ('A' for Active; 'I' for Inactive)
REMARK    1  A    between atoms: C1_1  and  C2_2
REMARK    2  A    between atoms: C4_4  and  C18_23
REMARK    3  A    between atoms: C4_4  and  C19_24
REMARK    4  A    between atoms: C6_6  and  C8_9
REMARK    5  A    between atoms: C8_9  and  C9_10
REMARK    6  A    between atoms: C10_11  and  O4_21
REMARK    7  A    between atoms: C11_12  and  C16_19
REMARK    8  A    between atoms: C11_12  and  C17_20
REMARK    9  A    between atoms: C13_14  and  C15_17
REMARK                            x       y       z     vdW  Elec       q    Type
REMARK                         _______ _______ _______ _____ _____    ______ ____
ROOT
ATOM     11  C   UNL     1      48.506  17.171  17.283  0.00  0.00    +0.145 C 
ENDROOT
BRANCH  11  10
ATOM      1  C   UNL     1      45.437  13.807  19.199  0.00  0.00    +0.082 C 
ATOM      2  C   UNL     1      46.892  14.266  19.316  0.00  0.00    -0.042 C 
ATOM      3  C   UNL     1      47.810  13.209  18.740  0.00  0.00    +0.378 C 
ATOM      4  O   UNL     1      47.391  12.114  18.452  0.00  0.00    -0.408 OA
ATOM      5  C   UNL     1      49.269  13.562  18.535  0.00  0.00    -0.158 C 
ATOM      6  C   UNL     1      49.954  12.468  17.714  0.00  0.00    +0.087 C 
ATOM      7  C   UNL     1      49.962  13.701  19.892  0.00  0.00    +0.100 C 
ATOM      8  C   UNL     1      49.332  14.878  17.790  0.00  0.00    +0.381 C 
ATOM      9  O   UNL     1      50.025  15.001  16.808  0.00  0.00    -0.407 OA
ATOM     10  C   UNL     1      48.506  16.035  18.308  0.00  0.00    -0.050 C 
ATOM     25  C   UNL     1      47.092  15.543  18.527  0.00  0.00    +0.370 C 
ATOM     26  O   UNL     1      46.148  16.150  18.081  0.00  0.00    -0.390 OA
ENDBRANCH  11  10
BRANCH  11  12
ATOM     12  C   UNL     1      49.248  18.357  17.846  0.00  0.00    -0.319 C 
ATOM     13  C   UNL     1      50.508  18.604  17.467  0.00  0.00    +0.197 C 
ATOM     16  C   UNL     1      51.295  19.771  17.977  0.00  0.00    -0.032 C 
ATOM     17  C   UNL     1      52.718  19.306  18.292  0.00  0.00    +0.090 C 
ATOM     18  C   UNL     1      51.358  20.839  16.884  0.00  0.00    +0.092 C 
ATOM     19  C   UNL     1      50.701  20.377  19.210  0.00  0.00    +0.261 C 
ATOM     20  O   UNL     1      51.469  21.196  19.960  0.00  0.00    -0.435 OA
ATOM     21  C   UNL     1      49.443  20.143  19.603  0.00  0.00    -0.089 C 
ATOM     22  C   UNL     1      48.903  20.796  20.849  0.00  0.00    +0.186 C 
ATOM     23  C   UNL     1      48.593  19.250  18.806  0.00  0.00    +0.413 C 
ATOM     24  O   UNL     1      47.380  19.246  18.942  0.00  0.00    -0.401 OA
BRANCH  13  14
ATOM     14  O   UNL     1      51.094  17.767  16.587  0.00  0.00    -0.455 OA
ATOM     15  H   UNL     1      52.019  17.979  16.399  0.00  0.00    +0.404 HD
ENDBRANCH  13  14
ENDBRANCH  11  12
TORSDOF 3
ENDMDL
MODEL 8
REMARK VINA RESULT:      -5.1      2.063      6.551
REMARK  Name = ZINC95485884
REMARK  9 active torsions:
REMARK  status: ('A' for Active; 'I' for Inactive)
REMARK    1  A    between atoms: C1_1  and  C2_2
REMARK    2  A    between atoms: C4_4  and  C18_23
REMARK    3  A    between atoms: C4_4  and  C19_24
REMARK    4  A    between atoms: C6_6  and  C8_9
REMARK    5  A    between atoms: C8_9  and  C9_10
REMARK    6  A    between atoms: C10_11  and  O4_21
REMARK    7  A    between atoms: C11_12  and  C16_19
REMARK    8  A    between atoms: C11_12  and  C17_20
REMARK    9  A    between atoms: C13_14  and  C15_17
REMARK                            x       y       z     vdW  Elec       q    Type
REMARK                         _______ _______ _______ _____ _____    ______ ____
ROOT
ATOM     11  C   UNL     1      47.735  18.569  18.523  0.00  0.00    +0.145 C 
ENDROOT
BRANCH  11  10
ATOM      1  C   UNL     1      44.536  16.092  21.358  0.00  0.00    +0.082 C 
ATOM      2  C   UNL     1      45.973  15.983  20.843  0.00  0.00    -0.042 C 
ATOM      3  C   UNL     1      46.072  14.853  19.838  0.00  0.00    +0.378 C 
ATOM      4  O   UNL     1      45.161  14.075  19.688  0.00  0.00    -0.408 OA
ATOM      5  C   UNL     1      47.344  14.726  19.027  0.00  0.00    -0.158 C 
ATOM      6  C   UNL     1      47.142  13.705  17.906  0.00  0.00    +0.087 C 
ATOM      7  C   UNL     1      48.493  14.280  19.933  0.00  0.00    +0.100 C 
ATOM      8  C   UNL     1      47.659  16.083  18.432  0.00  0.00    +0.381 C 
ATOM      9  O   UNL     1      47.906  16.202  17.257  0.00  0.00    -0.407 OA
ATOM     10  C   UNL     1      47.656  17.286  19.351  0.00  0.00    -0.050 C 
ATOM     25  C   UNL     1      46.367  17.268  20.145  0.00  0.00    +0.370 C 
ATOM     26  O   UNL     1      45.670  18.251  20.218  0.00  0.00    -0.390 OA
ENDBRANCH  11  10
BRANCH  11  12
ATOM     12  C   UNL     1      48.992  19.321  18.881  0.00  0.00    -0.319 C 
ATOM     13  C   UNL     1      50.104  19.160  18.152  0.00  0.00    +0.197 C 
ATOM     16  C   UNL     1      51.379  19.886  18.445  0.00  0.00    -0.032 C 
ATOM     17  C   UNL     1      52.547  18.908  18.302  0.00  0.00    +0.090 C 
ATOM     18  C   UNL     1      51.554  21.010  17.422  0.00  0.00    +0.092 C 
ATOM     19  C   UNL     1      51.409  20.476  19.820  0.00  0.00    +0.261 C 
ATOM     20  O   UNL     1      52.599  20.852  20.335  0.00  0.00    -0.435 OA
ATOM     21  C   UNL     1      50.308  20.647  20.562  0.00  0.00    -0.089 C 
ATOM     22  C   UNL     1      50.406  21.260  21.935  0.00  0.00    +0.186 C 
ATOM     23  C   UNL     1      49.004  20.238  20.025  0.00  0.00    +0.413 C 
ATOM     24  O   UNL     1      47.965  20.644  20.517  0.00  0.00    -0.401 OA
BRANCH  13  14
ATOM     14  O   UNL     1      50.073  18.308  17.107  0.00  0.00    -0.455 OA
ATOM     15  H   UNL     1      49.203  17.917  16.944  0.00  0.00    +0.404 HD
ENDBRANCH  13  14
ENDBRANCH  11  12
TORSDOF 3
ENDMDL
MODEL 9
REMARK VINA RESULT:      -5.0      2.908      5.045
REMARK  Name = ZINC95485884
REMARK  9 active torsions:
REMARK  status: ('A' for Active; 'I' for Inactive)
REMARK    1  A    between atoms: C1_1  and  C2_2
REMARK    2  A    between atoms: C4_4  and  C18_23
REMARK    3  A    between atoms: C4_4  and  C19_24
REMARK    4  A    between atoms: C6_6  and  C8_9
REMARK    5  A    between atoms: C8_9  and  C9_10
REMARK    6  A    between atoms: C10_11  and  O4_21
REMARK    7  A    between atoms: C11_12  and  C16_19
REMARK    8  A    between atoms: C11_12  and  C17_20
REMARK    9  A    between atoms: C13_14  and  C15_17
REMARK                            x       y       z     vdW  Elec       q    Type
REMARK                         _______ _______ _______ _____ _____    ______ ____
ROOT
ATOM     11  C   UNL     1      47.818  16.704  16.968  0.00  0.00    +0.145 C 
ENDROOT
BRANCH  11  10
ATOM      1  C   UNL     1      51.784  19.541  17.762  0.00  0.00    +0.082 C 
ATOM      2  C   UNL     1      50.603  18.937  18.527  0.00  0.00    -0.042 C 
ATOM      3  C   UNL     1      49.644  20.036  18.935  0.00  0.00    +0.378 C 
ATOM      4  O   UNL     1      49.948  21.199  18.822  0.00  0.00    -0.408 OA
ATOM      5  C   UNL     1      48.292  19.636  19.489  0.00  0.00    -0.158 C 
ATOM      6  C   UNL     1      47.391  20.868  19.590  0.00  0.00    +0.087 C 
ATOM      7  C   UNL     1      48.465  19.007  20.872  0.00  0.00    +0.100 C 
ATOM      8  C   UNL     1      47.677  18.628  18.541  0.00  0.00    +0.381 C 
ATOM      9  O   UNL     1      46.545  18.763  18.141  0.00  0.00    -0.407 OA
ATOM     10  C   UNL     1      48.517  17.446  18.109  0.00  0.00    -0.050 C 
ATOM     25  C   UNL     1      49.856  17.969  17.635  0.00  0.00    +0.370 C 
ATOM     26  O   UNL     1      50.315  17.625  16.572  0.00  0.00    -0.390 OA
ENDBRANCH  11  10
BRANCH  11  12
ATOM     12  C   UNL     1      47.663  15.249  17.335  0.00  0.00    -0.319 C 
ATOM     13  C   UNL     1      48.588  14.358  16.957  0.00  0.00    +0.197 C 
ATOM     16  C   UNL     1      48.502  12.904  17.300  0.00  0.00    -0.032 C 
ATOM     17  C   UNL     1      48.896  12.083  16.069  0.00  0.00    +0.090 C 
ATOM     18  C   UNL     1      49.492  12.602  18.427  0.00  0.00    +0.092 C 
ATOM     19  C   UNL     1      47.131  12.490  17.737  0.00  0.00    +0.261 C 
ATOM     20  O   UNL     1      46.827  11.176  17.745  0.00  0.00    -0.435 OA
ATOM     21  C   UNL     1      46.195  13.367  18.120  0.00  0.00    -0.089 C 
ATOM     22  C   UNL     1      44.838  12.883  18.561  0.00  0.00    +0.186 C 
ATOM     23  C   UNL     1      46.503  14.802  18.111  0.00  0.00    +0.413 C 
ATOM     24  O   UNL     1      45.813  15.599  18.726  0.00  0.00    -0.401 OA
BRANCH  13  14
ATOM     14  O   UNL     1      49.645  14.789  16.238  0.00  0.00    -0.455 OA
ATOM     15  H   UNL     1      50.214  14.079  15.910  0.00  0.00    +0.404 HD
ENDBRANCH  13  14
ENDBRANCH  11  12
TORSDOF 3
ENDMDL
