MODEL 1
REMARK VINA RESULT:      -5.1      0.000      0.000
REMARK  Name = ZINC95486004
REMARK  13 active torsions:
REMARK  status: ('A' for Active; 'I' for Inactive)
REMARK    1  A    between atoms: C1_1  and  C2_2
REMARK    2  A    between atoms: C2_2  and  O2_4
REMARK    3  A    between atoms: O2_4  and  C3_5
REMARK    4  A    between atoms: C3_5  and  C4_6
REMARK    5  A    between atoms: C7_10  and  C20_27
REMARK    6  A    between atoms: C11_15  and  C12_17
REMARK    7  A    between atoms: C15_20  and  O5_25
REMARK    8  A    between atoms: C16_21  and  O4_23
REMARK    9  A    between atoms: O4_23  and  C18_24
REMARK   10  A    between atoms: O5_25  and  C19_26
REMARK   11  A    between atoms: C21_28  and  C22_29
REMARK   12  A    between atoms: C22_29  and  O6_30
REMARK   13  A    between atoms: O6_30  and  C23_31
REMARK                            x       y       z     vdW  Elec       q    Type
REMARK                         _______ _______ _______ _____ _____    ______ ____
ROOT
ATOM      5  C   UNL     1      49.413  17.106  18.532  0.00  0.00    +0.044 C 
ATOM      6  C   UNL     1      48.126  17.907  18.498  0.00  0.00    -0.168 A 
ATOM      7  C   UNL     1      47.864  19.239  18.713  0.00  0.00    +0.089 A 
ATOM      8  C   UNL     1      46.554  19.714  18.622  0.00  0.00    -0.086 A 
ATOM     14  C   UNL     1      45.521  18.826  18.315  0.00  0.00    +0.063 A 
ATOM     15  C   UNL     1      45.794  17.495  18.098  0.00  0.00    -0.002 A 
ATOM     16  C   UNL     1      47.102  17.019  18.184  0.00  0.00    +0.109 A 
ATOM     17  O   UNL     1      47.585  15.761  17.992  0.00  0.00    -0.290 OA
ATOM     18  C   UNL     1      48.886  15.653  18.596  0.00  0.00    +0.248 C 
ENDROOT
BRANCH  18  19
ATOM     19  C   UNL     1      49.770  14.728  17.801  0.00  0.00    -0.100 A 
ATOM     20  C   UNL     1      50.988  14.325  18.317  0.00  0.00    +0.045 A 
ATOM     21  C   UNL     1      51.803  13.476  17.592  0.00  0.00    -0.030 A 
ATOM     22  C   UNL     1      51.399  13.026  16.345  0.00  0.00    +0.112 A 
ATOM     25  C   UNL     1      50.173  13.431  15.826  0.00  0.00    +0.101 A 
ATOM     28  C   UNL     1      49.359  14.278  16.560  0.00  0.00    -0.016 A 
BRANCH  22  23
ATOM     23  O   UNL     1      52.200  12.191  15.630  0.00  0.00    -0.304 OA
ATOM     24  C   UNL     1      52.419  10.885  16.168  0.00  0.00    +0.241 C 
ENDBRANCH  22  23
BRANCH  25  26
ATOM     26  O   UNL     1      49.773  12.991  14.603  0.00  0.00    -0.304 OA
ATOM     27  C   UNL     1      48.715  12.031  14.573  0.00  0.00    +0.239 C 
ENDBRANCH  25  26
ENDBRANCH  18  19
BRANCH   8   9
ATOM      9  C   UNL     1      46.263  21.145  18.851  0.00  0.00    +0.023 C 
ATOM     10  C   UNL     1      45.070  21.516  19.296  0.00  0.00    -0.026 C 
BRANCH  10  11
ATOM     11  C   UNL     1      44.772  22.974  19.529  0.00  0.00    +0.208 C 
BRANCH  11  12
ATOM     12  O   UNL     1      45.328  23.380  20.781  0.00  0.00    -0.389 OA
ATOM     13  C   UNL     1      44.834  22.643  21.901  0.00  0.00    +0.203 C 
ENDBRANCH  11  12
ENDBRANCH  10  11
ENDBRANCH   8   9
BRANCH   5   4
ATOM      4  C   UNL     1      50.233  17.334  17.260  0.00  0.00    +0.234 C 
BRANCH   4   3
ATOM      3  O   UNL     1      51.406  18.087  17.578  0.00  0.00    -0.351 OA
BRANCH   3   2
ATOM      1  C   UNL     1      51.208  20.547  17.505  0.00  0.00    +0.157 C 
ATOM      2  C   UNL     1      51.602  19.226  16.896  0.00  0.00    +0.458 C 
ATOM     29  O   UNL     1      52.096  19.192  15.793  0.00  0.00    -0.509 OA
ENDBRANCH   3   2
ENDBRANCH   4   3
ENDBRANCH   5   4
TORSDOF 9
ENDMDL
MODEL 2
REMARK VINA RESULT:      -5.0      1.934      8.456
REMARK  Name = ZINC95486004
REMARK  13 active torsions:
REMARK  status: ('A' for Active; 'I' for Inactive)
REMARK    1  A    between atoms: C1_1  and  C2_2
REMARK    2  A    between atoms: C2_2  and  O2_4
REMARK    3  A    between atoms: O2_4  and  C3_5
REMARK    4  A    between atoms: C3_5  and  C4_6
REMARK    5  A    between atoms: C7_10  and  C20_27
REMARK    6  A    between atoms: C11_15  and  C12_17
REMARK    7  A    between atoms: C15_20  and  O5_25
REMARK    8  A    between atoms: C16_21  and  O4_23
REMARK    9  A    between atoms: O4_23  and  C18_24
REMARK   10  A    between atoms: O5_25  and  C19_26
REMARK   11  A    between atoms: C21_28  and  C22_29
REMARK   12  A    between atoms: C22_29  and  O6_30
REMARK   13  A    between atoms: O6_30  and  C23_31
REMARK                            x       y       z     vdW  Elec       q    Type
REMARK                         _______ _______ _______ _____ _____    ______ ____
ROOT
ATOM      5  C   UNL     1      47.786  17.786  17.784  0.00  0.00    +0.044 C 
ATOM      6  C   UNL     1      47.926  16.296  17.540  0.00  0.00    -0.168 A 
ATOM      7  C   UNL     1      49.000  15.519  17.178  0.00  0.00    +0.089 A 
ATOM      8  C   UNL     1      48.838  14.141  17.013  0.00  0.00    -0.086 A 
ATOM     14  C   UNL     1      47.581  13.568  17.217  0.00  0.00    +0.063 A 
ATOM     15  C   UNL     1      46.513  14.354  17.583  0.00  0.00    -0.002 A 
ATOM     16  C   UNL     1      46.674  15.729  17.753  0.00  0.00    +0.109 A 
ATOM     17  O   UNL     1      45.765  16.673  18.123  0.00  0.00    -0.290 OA
ATOM     18  C   UNL     1      46.251  17.974  17.752  0.00  0.00    +0.248 C 
ENDROOT
BRANCH  18  19
ATOM     19  C   UNL     1      45.819  19.012  18.755  0.00  0.00    -0.100 A 
ATOM     20  C   UNL     1      46.102  20.347  18.531  0.00  0.00    +0.045 A 
ATOM     21  C   UNL     1      45.707  21.304  19.447  0.00  0.00    -0.030 A 
ATOM     22  C   UNL     1      45.026  20.927  20.593  0.00  0.00    +0.112 A 
ATOM     25  C   UNL     1      44.741  19.583  20.818  0.00  0.00    +0.101 A 
ATOM     28  C   UNL     1      45.135  18.630  19.893  0.00  0.00    -0.016 A 
BRANCH  22  23
ATOM     23  O   UNL     1      44.638  21.866  21.496  0.00  0.00    -0.304 OA
ATOM     24  C   UNL     1      45.003  23.221  21.219  0.00  0.00    +0.241 C 
ENDBRANCH  22  23
BRANCH  25  26
ATOM     26  O   UNL     1      44.073  19.208  21.942  0.00  0.00    -0.304 OA
ATOM     27  C   UNL     1      43.148  18.127  21.815  0.00  0.00    +0.239 C 
ENDBRANCH  25  26
ENDBRANCH  18  19
BRANCH   8   9
ATOM      9  C   UNL     1      49.987  13.297  16.623  0.00  0.00    +0.023 C 
ATOM     10  C   UNL     1      50.463  13.356  15.386  0.00  0.00    -0.026 C 
BRANCH  10  11
ATOM     11  C   UNL     1      51.634  12.496  14.988  0.00  0.00    +0.208 C 
BRANCH  11  12
ATOM     12  O   UNL     1      51.426  11.989  13.668  0.00  0.00    -0.389 OA
ATOM     13  C   UNL     1      50.896  12.951  12.754  0.00  0.00    +0.203 C 
ENDBRANCH  11  12
ENDBRANCH  10  11
ENDBRANCH   8   9
BRANCH   5   4
ATOM      4  C   UNL     1      48.356  18.172  19.150  0.00  0.00    +0.234 C 
BRANCH   4   3
ATOM      3  O   UNL     1      49.770  18.352  19.043  0.00  0.00    -0.351 OA
BRANCH   3   2
ATOM      1  C   UNL     1      49.759  20.804  18.750  0.00  0.00    +0.157 C 
ATOM      2  C   UNL     1      50.198  19.419  18.350  0.00  0.00    +0.458 C 
ATOM     29  O   UNL     1      50.936  19.268  17.404  0.00  0.00    -0.509 OA
ENDBRANCH   3   2
ENDBRANCH   4   3
ENDBRANCH   5   4
TORSDOF 9
ENDMDL
MODEL 3
REMARK VINA RESULT:      -5.0      3.770      8.670
REMARK  Name = ZINC95486004
REMARK  13 active torsions:
REMARK  status: ('A' for Active; 'I' for Inactive)
REMARK    1  A    between atoms: C1_1  and  C2_2
REMARK    2  A    between atoms: C2_2  and  O2_4
REMARK    3  A    between atoms: O2_4  and  C3_5
REMARK    4  A    between atoms: C3_5  and  C4_6
REMARK    5  A    between atoms: C7_10  and  C20_27
REMARK    6  A    between atoms: C11_15  and  C12_17
REMARK    7  A    between atoms: C15_20  and  O5_25
REMARK    8  A    between atoms: C16_21  and  O4_23
REMARK    9  A    between atoms: O4_23  and  C18_24
REMARK   10  A    between atoms: O5_25  and  C19_26
REMARK   11  A    between atoms: C21_28  and  C22_29
REMARK   12  A    between atoms: C22_29  and  O6_30
REMARK   13  A    between atoms: O6_30  and  C23_31
REMARK                            x       y       z     vdW  Elec       q    Type
REMARK                         _______ _______ _______ _____ _____    ______ ____
ROOT
ATOM      5  C   UNL     1      47.683  18.551  20.254  0.00  0.00    +0.044 C 
ATOM      6  C   UNL     1      49.011  18.932  19.628  0.00  0.00    -0.168 A 
ATOM      7  C   UNL     1      50.184  18.235  19.460  0.00  0.00    +0.089 A 
ATOM      8  C   UNL     1      51.275  18.849  18.842  0.00  0.00    -0.086 A 
ATOM     14  C   UNL     1      51.162  20.169  18.401  0.00  0.00    +0.063 A 
ATOM     15  C   UNL     1      49.982  20.857  18.570  0.00  0.00    -0.002 A 
ATOM     16  C   UNL     1      48.889  20.244  19.183  0.00  0.00    +0.109 A 
ATOM     17  O   UNL     1      47.643  20.733  19.429  0.00  0.00    -0.290 OA
ATOM     18  C   UNL     1      47.008  19.931  20.439  0.00  0.00    +0.248 C 
ENDROOT
BRANCH  18  19
ATOM     19  C   UNL     1      45.525  19.837  20.195  0.00  0.00    -0.100 A 
ATOM     20  C   UNL     1      44.982  20.365  19.037  0.00  0.00    +0.045 A 
ATOM     21  C   UNL     1      43.621  20.281  18.808  0.00  0.00    -0.030 A 
ATOM     22  C   UNL     1      42.798  19.667  19.738  0.00  0.00    +0.112 A 
ATOM     25  C   UNL     1      43.344  19.136  20.902  0.00  0.00    +0.101 A 
ATOM     28  C   UNL     1      44.710  19.219  21.124  0.00  0.00    -0.016 A 
BRANCH  22  23
ATOM     23  O   UNL     1      41.459  19.585  19.514  0.00  0.00    -0.304 OA
ATOM     24  C   UNL     1      40.958  20.226  18.340  0.00  0.00    +0.241 C 
ENDBRANCH  22  23
BRANCH  25  26
ATOM     26  O   UNL     1      42.540  18.532  21.818  0.00  0.00    -0.304 OA
ATOM     27  C   UNL     1      42.920  17.225  22.253  0.00  0.00    +0.239 C 
ENDBRANCH  25  26
ENDBRANCH  18  19
BRANCH   8   9
ATOM      9  C   UNL     1      52.541  18.108  18.658  0.00  0.00    +0.023 C 
ATOM     10  C   UNL     1      52.819  17.070  19.435  0.00  0.00    -0.026 C 
BRANCH  10  11
ATOM     11  C   UNL     1      54.109  16.314  19.249  0.00  0.00    +0.208 C 
BRANCH  11  12
ATOM     12  O   UNL     1      54.615  15.913  20.524  0.00  0.00    -0.389 OA
ATOM     13  C   UNL     1      55.542  14.827  20.465  0.00  0.00    +0.203 C 
ENDBRANCH  11  12
ENDBRANCH  10  11
ENDBRANCH   8   9
BRANCH   5   4
ATOM      4  C   UNL     1      46.867  17.667  19.309  0.00  0.00    +0.234 C 
BRANCH   4   3
ATOM      3  O   UNL     1      47.102  16.292  19.621  0.00  0.00    -0.351 OA
BRANCH   3   2
ATOM      1  C   UNL     1      45.129  14.991  20.335  0.00  0.00    +0.157 C 
ATOM      2  C   UNL     1      46.135  15.419  19.298  0.00  0.00    +0.458 C 
ATOM     29  O   UNL     1      46.070  14.977  18.175  0.00  0.00    -0.509 OA
ENDBRANCH   3   2
ENDBRANCH   4   3
ENDBRANCH   5   4
TORSDOF 9
ENDMDL
MODEL 4
REMARK VINA RESULT:      -5.0      2.402      4.166
REMARK  Name = ZINC95486004
REMARK  13 active torsions:
REMARK  status: ('A' for Active; 'I' for Inactive)
REMARK    1  A    between atoms: C1_1  and  C2_2
REMARK    2  A    between atoms: C2_2  and  O2_4
REMARK    3  A    between atoms: O2_4  and  C3_5
REMARK    4  A    between atoms: C3_5  and  C4_6
REMARK    5  A    between atoms: C7_10  and  C20_27
REMARK    6  A    between atoms: C11_15  and  C12_17
REMARK    7  A    between atoms: C15_20  and  O5_25
REMARK    8  A    between atoms: C16_21  and  O4_23
REMARK    9  A    between atoms: O4_23  and  C18_24
REMARK   10  A    between atoms: O5_25  and  C19_26
REMARK   11  A    between atoms: C21_28  and  C22_29
REMARK   12  A    between atoms: C22_29  and  O6_30
REMARK   13  A    between atoms: O6_30  and  C23_31
REMARK                            x       y       z     vdW  Elec       q    Type
REMARK                         _______ _______ _______ _____ _____    ______ ____
ROOT
ATOM      5  C   UNL     1      47.608  16.853  17.620  0.00  0.00    +0.044 C 
ATOM      6  C   UNL     1      46.909  18.101  18.123  0.00  0.00    -0.168 A 
ATOM      7  C   UNL     1      45.581  18.456  18.175  0.00  0.00    +0.089 A 
ATOM      8  C   UNL     1      45.214  19.699  18.695  0.00  0.00    -0.086 A 
ATOM     14  C   UNL     1      46.202  20.570  19.155  0.00  0.00    +0.063 A 
ATOM     15  C   UNL     1      47.528  20.205  19.102  0.00  0.00    -0.002 A 
ATOM     16  C   UNL     1      47.897  18.962  18.589  0.00  0.00    +0.109 A 
ATOM     17  O   UNL     1      49.132  18.404  18.463  0.00  0.00    -0.290 OA
ATOM     18  C   UNL     1      49.075  17.330  17.510  0.00  0.00    +0.248 C 
ENDROOT
BRANCH  18  19
ATOM     19  C   UNL     1      50.026  16.225  17.890  0.00  0.00    -0.100 A 
ATOM     20  C   UNL     1      50.648  16.245  19.125  0.00  0.00    +0.045 A 
ATOM     21  C   UNL     1      51.521  15.233  19.480  0.00  0.00    -0.030 A 
ATOM     22  C   UNL     1      51.775  14.196  18.597  0.00  0.00    +0.112 A 
ATOM     25  C   UNL     1      51.148  14.176  17.355  0.00  0.00    +0.101 A 
ATOM     28  C   UNL     1      50.270  15.190  17.008  0.00  0.00    -0.016 A 
BRANCH  22  23
ATOM     23  O   UNL     1      52.633  13.201  18.944  0.00  0.00    -0.304 OA
ATOM     24  C   UNL     1      53.840  13.587  19.606  0.00  0.00    +0.241 C 
ENDBRANCH  22  23
BRANCH  25  26
ATOM     26  O   UNL     1      51.394  13.159  16.485  0.00  0.00    -0.304 OA
ATOM     27  C   UNL     1      51.424  13.488  15.095  0.00  0.00    +0.239 C 
ENDBRANCH  25  26
ENDBRANCH  18  19
BRANCH   8   9
ATOM      9  C   UNL     1      43.789  20.089  18.754  0.00  0.00    +0.023 C 
ATOM     10  C   UNL     1      42.954  19.429  19.544  0.00  0.00    -0.026 C 
BRANCH  10  11
ATOM     11  C   UNL     1      41.501  19.825  19.604  0.00  0.00    +0.208 C 
BRANCH  11  12
ATOM     12  O   UNL     1      41.124  20.443  18.372  0.00  0.00    -0.389 OA
ATOM     13  C   UNL     1      40.194  21.517  18.522  0.00  0.00    +0.203 C 
ENDBRANCH  11  12
ENDBRANCH  10  11
ENDBRANCH   8   9
BRANCH   5   4
ATOM      4  C   UNL     1      47.479  15.710  18.629  0.00  0.00    +0.234 C 
BRANCH   4   3
ATOM      3  O   UNL     1      46.392  14.862  18.253  0.00  0.00    -0.351 OA
BRANCH   3   2
ATOM      1  C   UNL     1      45.169  15.463  20.313  0.00  0.00    +0.157 C 
ATOM      2  C   UNL     1      45.545  14.489  19.226  0.00  0.00    +0.458 C 
ATOM     29  O   UNL     1      45.085  13.371  19.230  0.00  0.00    -0.509 OA
ENDBRANCH   3   2
ENDBRANCH   4   3
ENDBRANCH   5   4
TORSDOF 9
ENDMDL
MODEL 5
REMARK VINA RESULT:      -4.9      4.388      8.546
REMARK  Name = ZINC95486004
REMARK  13 active torsions:
REMARK  status: ('A' for Active; 'I' for Inactive)
REMARK    1  A    between atoms: C1_1  and  C2_2
REMARK    2  A    between atoms: C2_2  and  O2_4
REMARK    3  A    between atoms: O2_4  and  C3_5
REMARK    4  A    between atoms: C3_5  and  C4_6
REMARK    5  A    between atoms: C7_10  and  C20_27
REMARK    6  A    between atoms: C11_15  and  C12_17
REMARK    7  A    between atoms: C15_20  and  O5_25
REMARK    8  A    between atoms: C16_21  and  O4_23
REMARK    9  A    between atoms: O4_23  and  C18_24
REMARK   10  A    between atoms: O5_25  and  C19_26
REMARK   11  A    between atoms: C21_28  and  C22_29
REMARK   12  A    between atoms: C22_29  and  O6_30
REMARK   13  A    between atoms: O6_30  and  C23_31
REMARK                            x       y       z     vdW  Elec       q    Type
REMARK                         _______ _______ _______ _____ _____    ______ ____
ROOT
ATOM      5  C   UNL     1      46.101  20.807  19.229  0.00  0.00    +0.044 C 
ATOM      6  C   UNL     1      47.505  20.289  18.984  0.00  0.00    -0.168 A 
ATOM      7  C   UNL     1      48.740  20.872  19.132  0.00  0.00    +0.089 A 
ATOM      8  C   UNL     1      49.893  20.148  18.818  0.00  0.00    -0.086 A 
ATOM     14  C   UNL     1      49.776  18.837  18.354  0.00  0.00    +0.063 A 
ATOM     15  C   UNL     1      48.534  18.261  18.212  0.00  0.00    -0.002 A 
ATOM     16  C   UNL     1      47.382  18.980  18.530  0.00  0.00    +0.109 A 
ATOM     17  O   UNL     1      46.076  18.598  18.479  0.00  0.00    -0.290 OA
ATOM     18  C   UNL     1      45.239  19.766  18.476  0.00  0.00    +0.248 C 
ENDROOT
BRANCH  18  19
ATOM     19  C   UNL     1      43.952  19.504  19.214  0.00  0.00    -0.100 A 
ATOM     20  C   UNL     1      43.893  18.502  20.165  0.00  0.00    +0.045 A 
ATOM     21  C   UNL     1      42.715  18.258  20.846  0.00  0.00    -0.030 A 
ATOM     22  C   UNL     1      41.589  19.018  20.576  0.00  0.00    +0.112 A 
ATOM     25  C   UNL     1      41.647  20.027  19.619  0.00  0.00    +0.101 A 
ATOM     28  C   UNL     1      42.833  20.270  18.944  0.00  0.00    -0.016 A 
BRANCH  22  23
ATOM     23  O   UNL     1      40.429  18.779  21.243  0.00  0.00    -0.304 OA
ATOM     24  C   UNL     1      40.214  19.512  22.452  0.00  0.00    +0.241 C 
ENDBRANCH  22  23
BRANCH  25  26
ATOM     26  O   UNL     1      40.544  20.776  19.351  0.00  0.00    -0.304 OA
ATOM     27  C   UNL     1      40.689  21.822  18.388  0.00  0.00    +0.239 C 
ENDBRANCH  25  26
ENDBRANCH  18  19
BRANCH   8   9
ATOM      9  C   UNL     1      51.226  20.768  18.973  0.00  0.00    +0.023 C 
ATOM     10  C   UNL     1      51.574  21.309  20.133  0.00  0.00    -0.026 C 
BRANCH  10  11
ATOM     11  C   UNL     1      52.932  21.942  20.292  0.00  0.00    +0.208 C 
BRANCH  11  12
ATOM     12  O   UNL     1      53.306  21.927  21.670  0.00  0.00    -0.389 OA
ATOM     13  C   UNL     1      52.419  21.181  22.505  0.00  0.00    +0.203 C 
ENDBRANCH  11  12
ENDBRANCH  10  11
ENDBRANCH   8   9
BRANCH   5   4
ATOM      4  C   UNL     1      45.772  20.810  20.724  0.00  0.00    +0.234 C 
BRANCH   4   3
ATOM      3  O   UNL     1      45.237  22.083  21.091  0.00  0.00    -0.351 OA
BRANCH   3   2
ATOM      1  C   UNL     1      45.849  24.471  20.954  0.00  0.00    +0.157 C 
ATOM      2  C   UNL     1      46.117  23.052  21.387  0.00  0.00    +0.458 C 
ATOM     29  O   UNL     1      47.124  22.787  21.999  0.00  0.00    -0.509 OA
ENDBRANCH   3   2
ENDBRANCH   4   3
ENDBRANCH   5   4
TORSDOF 9
ENDMDL
MODEL 6
REMARK VINA RESULT:      -4.8      2.411      4.401
REMARK  Name = ZINC95486004
REMARK  13 active torsions:
REMARK  status: ('A' for Active; 'I' for Inactive)
REMARK    1  A    between atoms: C1_1  and  C2_2
REMARK    2  A    between atoms: C2_2  and  O2_4
REMARK    3  A    between atoms: O2_4  and  C3_5
REMARK    4  A    between atoms: C3_5  and  C4_6
REMARK    5  A    between atoms: C7_10  and  C20_27
REMARK    6  A    between atoms: C11_15  and  C12_17
REMARK    7  A    between atoms: C15_20  and  O5_25
REMARK    8  A    between atoms: C16_21  and  O4_23
REMARK    9  A    between atoms: O4_23  and  C18_24
REMARK   10  A    between atoms: O5_25  and  C19_26
REMARK   11  A    between atoms: C21_28  and  C22_29
REMARK   12  A    between atoms: C22_29  and  O6_30
REMARK   13  A    between atoms: O6_30  and  C23_31
REMARK                            x       y       z     vdW  Elec       q    Type
REMARK                         _______ _______ _______ _____ _____    ______ ____
ROOT
ATOM      5  C   UNL     1      48.062  16.901  17.552  0.00  0.00    +0.044 C 
ATOM      6  C   UNL     1      47.612  18.233  18.120  0.00  0.00    -0.168 A 
ATOM      7  C   UNL     1      46.366  18.787  18.294  0.00  0.00    +0.089 A 
ATOM      8  C   UNL     1      46.244  20.064  18.847  0.00  0.00    -0.086 A 
ATOM     14  C   UNL     1      47.392  20.765  19.216  0.00  0.00    +0.063 A 
ATOM     15  C   UNL     1      48.635  20.201  19.041  0.00  0.00    -0.002 A 
ATOM     16  C   UNL     1      48.760  18.924  18.493  0.00  0.00    +0.109 A 
ATOM     17  O   UNL     1      49.878  18.186  18.254  0.00  0.00    -0.290 OA
ATOM     18  C   UNL     1      49.569  17.148  17.308  0.00  0.00    +0.248 C 
ENDROOT
BRANCH  18  19
ATOM     19  C   UNL     1      50.368  15.904  17.598  0.00  0.00    -0.100 A 
ATOM     20  C   UNL     1      50.159  14.760  16.850  0.00  0.00    +0.045 A 
ATOM     21  C   UNL     1      50.891  13.616  17.112  0.00  0.00    -0.030 A 
ATOM     22  C   UNL     1      51.836  13.615  18.124  0.00  0.00    +0.112 A 
ATOM     25  C   UNL     1      52.048  14.767  18.876  0.00  0.00    +0.101 A 
ATOM     28  C   UNL     1      51.315  15.911  18.605  0.00  0.00    -0.016 A 
BRANCH  22  23
ATOM     23  O   UNL     1      52.556  12.491  18.383  0.00  0.00    -0.304 OA
ATOM     24  C   UNL     1      51.822  11.321  18.752  0.00  0.00    +0.241 C 
ENDBRANCH  22  23
BRANCH  25  26
ATOM     26  O   UNL     1      52.975  14.771  19.870  0.00  0.00    -0.304 OA
ATOM     27  C   UNL     1      54.130  15.590  19.677  0.00  0.00    +0.239 C 
ENDBRANCH  25  26
ENDBRANCH  18  19
BRANCH   8   9
ATOM      9  C   UNL     1      44.908  20.667  19.037  0.00  0.00    +0.023 C 
ATOM     10  C   UNL     1      43.827  19.899  19.034  0.00  0.00    -0.026 C 
BRANCH  10  11
ATOM     11  C   UNL     1      42.465  20.514  19.227  0.00  0.00    +0.208 C 
BRANCH  11  12
ATOM     12  O   UNL     1      41.634  20.192  18.110  0.00  0.00    -0.389 OA
ATOM     13  C   UNL     1      40.309  20.718  18.202  0.00  0.00    +0.203 C 
ENDBRANCH  11  12
ENDBRANCH  10  11
ENDBRANCH   8   9
BRANCH   5   4
ATOM      4  C   UNL     1      47.850  15.775  18.567  0.00  0.00    +0.234 C 
BRANCH   4   3
ATOM      3  O   UNL     1      46.809  14.910  18.110  0.00  0.00    -0.351 OA
BRANCH   3   2
ATOM      1  C   UNL     1      45.194  13.343  19.125  0.00  0.00    +0.157 C 
ATOM      2  C   UNL     1      45.765  14.724  18.933  0.00  0.00    +0.458 C 
ATOM     29  O   UNL     1      45.283  15.664  19.519  0.00  0.00    -0.509 OA
ENDBRANCH   3   2
ENDBRANCH   4   3
ENDBRANCH   5   4
TORSDOF 9
ENDMDL
MODEL 7
REMARK VINA RESULT:      -4.8      2.933      4.146
REMARK  Name = ZINC95486004
REMARK  13 active torsions:
REMARK  status: ('A' for Active; 'I' for Inactive)
REMARK    1  A    between atoms: C1_1  and  C2_2
REMARK    2  A    between atoms: C2_2  and  O2_4
REMARK    3  A    between atoms: O2_4  and  C3_5
REMARK    4  A    between atoms: C3_5  and  C4_6
REMARK    5  A    between atoms: C7_10  and  C20_27
REMARK    6  A    between atoms: C11_15  and  C12_17
REMARK    7  A    between atoms: C15_20  and  O5_25
REMARK    8  A    between atoms: C16_21  and  O4_23
REMARK    9  A    between atoms: O4_23  and  C18_24
REMARK   10  A    between atoms: O5_25  and  C19_26
REMARK   11  A    between atoms: C21_28  and  C22_29
REMARK   12  A    between atoms: C22_29  and  O6_30
REMARK   13  A    between atoms: O6_30  and  C23_31
REMARK                            x       y       z     vdW  Elec       q    Type
REMARK                         _______ _______ _______ _____ _____    ______ ____
ROOT
ATOM      5  C   UNL     1      46.481  16.326  19.836  0.00  0.00    +0.044 C 
ATOM      6  C   UNL     1      45.509  17.056  20.743  0.00  0.00    -0.168 A 
ATOM      7  C   UNL     1      45.374  18.385  21.067  0.00  0.00    +0.089 A 
ATOM      8  C   UNL     1      44.373  18.785  21.955  0.00  0.00    -0.086 A 
ATOM     14  C   UNL     1      43.519  17.828  22.505  0.00  0.00    +0.063 A 
ATOM     15  C   UNL     1      43.661  16.500  22.172  0.00  0.00    -0.002 A 
ATOM     16  C   UNL     1      44.657  16.099  21.281  0.00  0.00    +0.109 A 
ATOM     17  O   UNL     1      44.954  14.856  20.810  0.00  0.00    -0.290 OA
ATOM     18  C   UNL     1      46.289  14.856  20.277  0.00  0.00    +0.248 C 
ENDROOT
BRANCH  18  19
ATOM     19  C   UNL     1      46.394  13.925  19.098  0.00  0.00    -0.100 A 
ATOM     20  C   UNL     1      45.267  13.277  18.627  0.00  0.00    +0.045 A 
ATOM     21  C   UNL     1      45.358  12.423  17.544  0.00  0.00    -0.030 A 
ATOM     22  C   UNL     1      46.581  12.214  16.927  0.00  0.00    +0.112 A 
ATOM     25  C   UNL     1      47.715  12.867  17.400  0.00  0.00    +0.101 A 
ATOM     28  C   UNL     1      47.616  13.726  18.482  0.00  0.00    -0.016 A 
BRANCH  22  23
ATOM     23  O   UNL     1      46.672  11.373  15.863  0.00  0.00    -0.304 OA
ATOM     24  C   UNL     1      45.499  10.632  15.520  0.00  0.00    +0.241 C 
ENDBRANCH  22  23
BRANCH  25  26
ATOM     26  O   UNL     1      48.917  12.665  16.797  0.00  0.00    -0.304 OA
ATOM     27  C   UNL     1      49.969  12.139  17.608  0.00  0.00    +0.239 C 
ENDBRANCH  25  26
ENDBRANCH  18  19
BRANCH   8   9
ATOM      9  C   UNL     1      44.220  20.212  22.311  0.00  0.00    +0.023 C 
ATOM     10  C   UNL     1      44.919  21.134  21.664  0.00  0.00    -0.026 C 
BRANCH  10  11
ATOM     11  C   UNL     1      44.765  22.589  22.026  0.00  0.00    +0.208 C 
BRANCH  11  12
ATOM     12  O   UNL     1      44.997  23.395  20.870  0.00  0.00    -0.389 OA
ATOM     13  C   UNL     1      44.687  22.745  19.636  0.00  0.00    +0.203 C 
ENDBRANCH  11  12
ENDBRANCH  10  11
ENDBRANCH   8   9
BRANCH   5   4
ATOM      4  C   UNL     1      46.099  16.509  18.365  0.00  0.00    +0.234 C 
BRANCH   4   3
ATOM      3  O   UNL     1      46.632  17.744  17.884  0.00  0.00    -0.351 OA
BRANCH   3   2
ATOM      1  C   UNL     1      48.853  16.972  17.129  0.00  0.00    +0.157 C 
ATOM      2  C   UNL     1      47.966  17.891  17.929  0.00  0.00    +0.458 C 
ATOM     29  O   UNL     1      48.455  18.761  18.612  0.00  0.00    -0.509 OA
ENDBRANCH   3   2
ENDBRANCH   4   3
ENDBRANCH   5   4
TORSDOF 9
ENDMDL
MODEL 8
REMARK VINA RESULT:      -4.7      2.853      4.246
REMARK  Name = ZINC95486004
REMARK  13 active torsions:
REMARK  status: ('A' for Active; 'I' for Inactive)
REMARK    1  A    between atoms: C1_1  and  C2_2
REMARK    2  A    between atoms: C2_2  and  O2_4
REMARK    3  A    between atoms: O2_4  and  C3_5
REMARK    4  A    between atoms: C3_5  and  C4_6
REMARK    5  A    between atoms: C7_10  and  C20_27
REMARK    6  A    between atoms: C11_15  and  C12_17
REMARK    7  A    between atoms: C15_20  and  O5_25
REMARK    8  A    between atoms: C16_21  and  O4_23
REMARK    9  A    between atoms: O4_23  and  C18_24
REMARK   10  A    between atoms: O5_25  and  C19_26
REMARK   11  A    between atoms: C21_28  and  C22_29
REMARK   12  A    between atoms: C22_29  and  O6_30
REMARK   13  A    between atoms: O6_30  and  C23_31
REMARK                            x       y       z     vdW  Elec       q    Type
REMARK                         _______ _______ _______ _____ _____    ______ ____
ROOT
ATOM      5  C   UNL     1      48.875  13.927  18.156  0.00  0.00    +0.044 C 
ATOM      6  C   UNL     1      47.566  14.120  18.896  0.00  0.00    -0.168 A 
ATOM      7  C   UNL     1      47.182  15.008  19.872  0.00  0.00    +0.089 A 
ATOM      8  C   UNL     1      45.886  14.953  20.392  0.00  0.00    -0.086 A 
ATOM     14  C   UNL     1      44.994  13.993  19.913  0.00  0.00    +0.063 A 
ATOM     15  C   UNL     1      45.387  13.110  18.932  0.00  0.00    -0.002 A 
ATOM     16  C   UNL     1      46.679  13.166  18.409  0.00  0.00    +0.109 A 
ATOM     17  O   UNL     1      47.257  12.409  17.436  0.00  0.00    -0.290 OA
ATOM     18  C   UNL     1      48.687  12.525  17.530  0.00  0.00    +0.248 C 
ENDROOT
BRANCH  18  19
ATOM     19  C   UNL     1      49.319  12.460  16.164  0.00  0.00    -0.100 A 
ATOM     20  C   UNL     1      48.560  12.721  15.038  0.00  0.00    +0.045 A 
ATOM     21  C   UNL     1      49.136  12.664  13.783  0.00  0.00    -0.030 A 
ATOM     22  C   UNL     1      50.477  12.344  13.650  0.00  0.00    +0.112 A 
ATOM     25  C   UNL     1      51.242  12.082  14.783  0.00  0.00    +0.101 A 
ATOM     28  C   UNL     1      50.660  12.147  16.039  0.00  0.00    -0.016 A 
BRANCH  22  23
ATOM     23  O   UNL     1      51.045  12.286  12.416  0.00  0.00    -0.304 OA
ATOM     24  C   UNL     1      50.569  13.214  11.439  0.00  0.00    +0.241 C 
ENDBRANCH  22  23
BRANCH  25  26
ATOM     26  O   UNL     1      52.559  11.769  14.658  0.00  0.00    -0.304 OA
ATOM     27  C   UNL     1      53.019  10.609  15.354  0.00  0.00    +0.239 C 
ENDBRANCH  25  26
ENDBRANCH  18  19
BRANCH   8   9
ATOM      9  C   UNL     1      45.465  15.904  21.443  0.00  0.00    +0.023 C 
ATOM     10  C   UNL     1      44.234  16.397  21.435  0.00  0.00    -0.026 C 
BRANCH  10  11
ATOM     11  C   UNL     1      43.804  17.367  22.505  0.00  0.00    +0.208 C 
BRANCH  11  12
ATOM     12  O   UNL     1      42.598  18.017  22.101  0.00  0.00    -0.389 OA
ATOM     13  C   UNL     1      42.741  18.839  20.941  0.00  0.00    +0.203 C 
ENDBRANCH  11  12
ENDBRANCH  10  11
ENDBRANCH   8   9
BRANCH   5   4
ATOM      4  C   UNL     1      49.051  14.991  17.070  0.00  0.00    +0.234 C 
BRANCH   4   3
ATOM      3  O   UNL     1      49.635  16.164  17.642  0.00  0.00    -0.351 OA
BRANCH   3   2
ATOM      1  C   UNL     1      47.556  17.304  16.951  0.00  0.00    +0.157 C 
ATOM      2  C   UNL     1      48.965  17.316  17.486  0.00  0.00    +0.458 C 
ATOM     29  O   UNL     1      49.493  18.365  17.774  0.00  0.00    -0.509 OA
ENDBRANCH   3   2
ENDBRANCH   4   3
ENDBRANCH   5   4
TORSDOF 9
ENDMDL
MODEL 9
REMARK VINA RESULT:      -4.7      2.443      4.255
REMARK  Name = ZINC95486004
REMARK  13 active torsions:
REMARK  status: ('A' for Active; 'I' for Inactive)
REMARK    1  A    between atoms: C1_1  and  C2_2
REMARK    2  A    between atoms: C2_2  and  O2_4
REMARK    3  A    between atoms: O2_4  and  C3_5
REMARK    4  A    between atoms: C3_5  and  C4_6
REMARK    5  A    between atoms: C7_10  and  C20_27
REMARK    6  A    between atoms: C11_15  and  C12_17
REMARK    7  A    between atoms: C15_20  and  O5_25
REMARK    8  A    between atoms: C16_21  and  O4_23
REMARK    9  A    between atoms: O4_23  and  C18_24
REMARK   10  A    between atoms: O5_25  and  C19_26
REMARK   11  A    between atoms: C21_28  and  C22_29
REMARK   12  A    between atoms: C22_29  and  O6_30
REMARK   13  A    between atoms: O6_30  and  C23_31
REMARK                            x       y       z     vdW  Elec       q    Type
REMARK                         _______ _______ _______ _____ _____    ______ ____
ROOT
ATOM      5  C   UNL     1      46.641  17.019  17.454  0.00  0.00    +0.044 C 
ATOM      6  C   UNL     1      46.852  18.387  18.074  0.00  0.00    -0.168 A 
ATOM      7  C   UNL     1      45.990  19.430  18.320  0.00  0.00    +0.089 A 
ATOM      8  C   UNL     1      46.468  20.603  18.909  0.00  0.00    -0.086 A 
ATOM     14  C   UNL     1      47.820  20.703  19.241  0.00  0.00    +0.063 A 
ATOM     15  C   UNL     1      48.674  19.653  18.994  0.00  0.00    -0.002 A 
ATOM     16  C   UNL     1      48.198  18.479  18.411  0.00  0.00    +0.109 A 
ATOM     17  O   UNL     1      48.860  17.330  18.102  0.00  0.00    -0.290 OA
ATOM     18  C   UNL     1      48.091  16.580  17.146  0.00  0.00    +0.248 C 
ENDROOT
BRANCH  18  19
ATOM     19  C   UNL     1      48.260  15.099  17.368  0.00  0.00    -0.100 A 
ATOM     20  C   UNL     1      47.699  14.200  16.479  0.00  0.00    +0.045 A 
ATOM     21  C   UNL     1      47.851  12.840  16.678  0.00  0.00    -0.030 A 
ATOM     22  C   UNL     1      48.568  12.376  17.769  0.00  0.00    +0.112 A 
ATOM     25  C   UNL     1      49.133  13.280  18.662  0.00  0.00    +0.101 A 
ATOM     28  C   UNL     1      48.981  14.642  18.455  0.00  0.00    -0.016 A 
BRANCH  22  23
ATOM     23  O   UNL     1      48.718  11.039  17.966  0.00  0.00    -0.304 OA
ATOM     24  C   UNL     1      49.237  10.277  16.874  0.00  0.00    +0.241 C 
ENDBRANCH  22  23
BRANCH  25  26
ATOM     26  O   UNL     1      49.837  12.829  19.734  0.00  0.00    -0.304 OA
ATOM     27  C   UNL     1      51.249  13.048  19.722  0.00  0.00    +0.239 C 
ENDBRANCH  25  26
ENDBRANCH  18  19
BRANCH   8   9
ATOM      9  C   UNL     1      45.548  21.729  19.176  0.00  0.00    +0.023 C 
ATOM     10  C   UNL     1      44.265  21.495  19.412  0.00  0.00    -0.026 C 
BRANCH  10  11
ATOM     11  C   UNL     1      43.327  22.643  19.684  0.00  0.00    +0.208 C 
BRANCH  11  12
ATOM     12  O   UNL     1      42.055  22.368  19.096  0.00  0.00    -0.389 OA
ATOM     13  C   UNL     1      41.758  20.975  18.976  0.00  0.00    +0.203 C 
ENDBRANCH  11  12
ENDBRANCH  10  11
ENDBRANCH   8   9
BRANCH   5   4
ATOM      4  C   UNL     1      45.980  16.064  18.450  0.00  0.00    +0.234 C 
BRANCH   4   3
ATOM      3  O   UNL     1      46.046  16.624  19.763  0.00  0.00    -0.351 OA
BRANCH   3   2
ATOM      1  C   UNL     1      44.129  17.630  20.951  0.00  0.00    +0.157 C 
ATOM      2  C   UNL     1      44.976  16.448  20.555  0.00  0.00    +0.458 C 
ATOM     29  O   UNL     1      44.693  15.342  20.951  0.00  0.00    -0.509 OA
ENDBRANCH   3   2
ENDBRANCH   4   3
ENDBRANCH   5   4
TORSDOF 9
ENDMDL
