MODEL 1
REMARK VINA RESULT:      -5.7      0.000      0.000
REMARK  Name = ZINC95486296
REMARK  8 active torsions:
REMARK  status: ('A' for Active; 'I' for Inactive)
REMARK    1  A    between atoms: C1_1  and  O1_2
REMARK    2  A    between atoms: O1_2  and  C2_3
REMARK    3  A    between atoms: C5_6  and  O2_9
REMARK    4  A    between atoms: O2_9  and  C8_10
REMARK    5  A    between atoms: C9_11  and  O6_23
REMARK    6  A    between atoms: C14_17  and  O5_21
REMARK    7  A    between atoms: O5_21  and  C17_22
REMARK    8  A    between atoms: O6_23  and  C18_24
REMARK                            x       y       z     vdW  Elec       q    Type
REMARK                         _______ _______ _______ _____ _____    ______ ____
ROOT
ATOM      8  C   UNL     1      46.045  18.868  20.095  0.00  0.00    +0.230 A 
ATOM      9  C   UNL     1      46.148  17.715  19.383  0.00  0.00    -0.084 A 
ATOM     12  C   UNL     1      47.313  17.467  18.620  0.00  0.00    +0.444 A 
ATOM     13  C   UNL     1      48.369  18.496  18.644  0.00  0.00    -0.252 A 
ATOM     14  C   UNL     1      49.551  18.338  17.921  0.00  0.00    +0.169 A 
ATOM     15  C   UNL     1      50.509  19.311  17.965  0.00  0.00    -0.087 A 
ATOM     16  C   UNL     1      50.310  20.461  18.727  0.00  0.00    +0.197 A 
ATOM     19  C   UNL     1      49.141  20.632  19.450  0.00  0.00    -0.027 A 
ATOM     20  C   UNL     1      48.159  19.652  19.414  0.00  0.00    +0.200 A 
ATOM     21  O   UNL     1      47.439  16.443  17.968  0.00  0.00    -0.448 OA
ATOM     22  O   UNL     1      47.010  19.799  20.105  0.00  0.00    -0.232 OA
ENDROOT
BRANCH   9  10
ATOM     10  O   UNL     1      45.136  16.802  19.403  0.00  0.00    -0.286 OA
ATOM     11  C   UNL     1      45.175  15.812  20.433  0.00  0.00    +0.257 C 
ENDBRANCH   9  10
BRANCH  16  17
ATOM     17  O   UNL     1      51.270  21.420  18.762  0.00  0.00    -0.306 OA
ATOM     18  C   UNL     1      52.438  21.141  19.535  0.00  0.00    +0.256 C 
ENDBRANCH  16  17
BRANCH   8   7
ATOM      7  O   UNL     1      44.924  19.086  20.818  0.00  0.00    -0.203 OA
BRANCH   7   6
ATOM      3  C   UNL     1      41.893  21.283  19.077  0.00  0.00    +0.144 A 
ATOM      4  C   UNL     1      43.102  21.891  19.385  0.00  0.00    -0.058 A 
ATOM      5  C   UNL     1      44.116  21.156  19.967  0.00  0.00    +0.062 A 
ATOM      6  C   UNL     1      43.926  19.810  20.244  0.00  0.00    +0.010 A 
ATOM     23  C   UNL     1      42.717  19.202  19.937  0.00  0.00    +0.076 A 
ATOM     24  C   UNL     1      41.701  19.938  19.359  0.00  0.00    +0.004 A 
BRANCH   3   2
ATOM      1  C   UNL     1      39.589  21.426  18.511  0.00  0.00    +0.247 C 
ATOM      2  O   UNL     1      40.895  22.007  18.505  0.00  0.00    -0.312 OA
ENDBRANCH   3   2
ENDBRANCH   7   6
ENDBRANCH   8   7
TORSDOF 5
ENDMDL
MODEL 2
REMARK VINA RESULT:      -5.6      2.523      7.233
REMARK  Name = ZINC95486296
REMARK  8 active torsions:
REMARK  status: ('A' for Active; 'I' for Inactive)
REMARK    1  A    between atoms: C1_1  and  O1_2
REMARK    2  A    between atoms: O1_2  and  C2_3
REMARK    3  A    between atoms: C5_6  and  O2_9
REMARK    4  A    between atoms: O2_9  and  C8_10
REMARK    5  A    between atoms: C9_11  and  O6_23
REMARK    6  A    between atoms: C14_17  and  O5_21
REMARK    7  A    between atoms: O5_21  and  C17_22
REMARK    8  A    between atoms: O6_23  and  C18_24
REMARK                            x       y       z     vdW  Elec       q    Type
REMARK                         _______ _______ _______ _____ _____    ______ ____
ROOT
ATOM      8  C   UNL     1      44.520  18.466  20.822  0.00  0.00    +0.230 A 
ATOM      9  C   UNL     1      45.261  19.586  21.038  0.00  0.00    -0.084 A 
ATOM     12  C   UNL     1      44.777  20.839  20.599  0.00  0.00    +0.444 A 
ATOM     13  C   UNL     1      43.470  20.859  19.917  0.00  0.00    -0.252 A 
ATOM     14  C   UNL     1      42.914  22.049  19.449  0.00  0.00    +0.169 A 
ATOM     15  C   UNL     1      41.701  22.031  18.820  0.00  0.00    -0.087 A 
ATOM     16  C   UNL     1      41.017  20.831  18.645  0.00  0.00    +0.197 A 
ATOM     19  C   UNL     1      41.555  19.640  19.105  0.00  0.00    -0.027 A 
ATOM     20  C   UNL     1      42.787  19.642  19.744  0.00  0.00    +0.200 A 
ATOM     21  O   UNL     1      45.416  21.864  20.776  0.00  0.00    -0.448 OA
ATOM     22  O   UNL     1      43.335  18.496  20.196  0.00  0.00    -0.232 OA
ENDROOT
BRANCH   9  10
ATOM     10  O   UNL     1      46.463  19.501  21.676  0.00  0.00    -0.286 OA
ATOM     11  C   UNL     1      47.631  19.453  20.853  0.00  0.00    +0.257 C 
ENDBRANCH   9  10
BRANCH  16  17
ATOM     17  O   UNL     1      39.812  20.827  18.019  0.00  0.00    -0.306 OA
ATOM     18  C   UNL     1      38.765  21.588  18.624  0.00  0.00    +0.256 C 
ENDBRANCH  16  17
BRANCH   8   7
ATOM      7  O   UNL     1      45.000  17.278  21.249  0.00  0.00    -0.203 OA
BRANCH   7   6
ATOM      3  C   UNL     1      45.993  14.454  18.406  0.00  0.00    +0.144 A 
ATOM      4  C   UNL     1      45.421  14.059  19.606  0.00  0.00    -0.058 A 
ATOM      5  C   UNL     1      45.088  15.003  20.558  0.00  0.00    +0.062 A 
ATOM      6  C   UNL     1      45.327  16.347  20.313  0.00  0.00    +0.010 A 
ATOM     23  C   UNL     1      45.901  16.744  19.113  0.00  0.00    +0.076 A 
ATOM     24  C   UNL     1      46.237  15.799  18.163  0.00  0.00    +0.004 A 
BRANCH   3   2
ATOM      1  C   UNL     1      45.427  12.422  17.310  0.00  0.00    +0.247 C 
ATOM      2  O   UNL     1      46.322  13.525  17.470  0.00  0.00    -0.312 OA
ENDBRANCH   3   2
ENDBRANCH   7   6
ENDBRANCH   8   7
TORSDOF 5
ENDMDL
MODEL 3
REMARK VINA RESULT:      -5.4      1.769      6.881
REMARK  Name = ZINC95486296
REMARK  8 active torsions:
REMARK  status: ('A' for Active; 'I' for Inactive)
REMARK    1  A    between atoms: C1_1  and  O1_2
REMARK    2  A    between atoms: O1_2  and  C2_3
REMARK    3  A    between atoms: C5_6  and  O2_9
REMARK    4  A    between atoms: O2_9  and  C8_10
REMARK    5  A    between atoms: C9_11  and  O6_23
REMARK    6  A    between atoms: C14_17  and  O5_21
REMARK    7  A    between atoms: O5_21  and  C17_22
REMARK    8  A    between atoms: O6_23  and  C18_24
REMARK                            x       y       z     vdW  Elec       q    Type
REMARK                         _______ _______ _______ _____ _____    ______ ____
ROOT
ATOM      8  C   UNL     1      46.149  19.343  21.274  0.00  0.00    +0.230 A 
ATOM      9  C   UNL     1      45.591  18.209  21.776  0.00  0.00    -0.084 A 
ATOM     12  C   UNL     1      44.224  17.939  21.536  0.00  0.00    +0.444 A 
ATOM     13  C   UNL     1      43.468  18.924  20.740  0.00  0.00    -0.252 A 
ATOM     14  C   UNL     1      42.115  18.740  20.454  0.00  0.00    +0.169 A 
ATOM     15  C   UNL     1      41.446  19.673  19.714  0.00  0.00    -0.087 A 
ATOM     16  C   UNL     1      42.107  20.805  19.243  0.00  0.00    +0.197 A 
ATOM     19  C   UNL     1      43.451  21.001  19.517  0.00  0.00    -0.027 A 
ATOM     20  C   UNL     1      44.144  20.063  20.269  0.00  0.00    +0.200 A 
ATOM     21  O   UNL     1      43.690  16.932  21.972  0.00  0.00    -0.448 OA
ATOM     22  O   UNL     1      45.451  20.234  20.555  0.00  0.00    -0.232 OA
ENDROOT
BRANCH   9  10
ATOM     10  O   UNL     1      46.344  17.338  22.505  0.00  0.00    -0.286 OA
ATOM     11  C   UNL     1      46.800  16.159  21.838  0.00  0.00    +0.257 C 
ENDBRANCH   9  10
BRANCH  16  17
ATOM     17  O   UNL     1      41.430  21.724  18.507  0.00  0.00    -0.306 OA
ATOM     18  C   UNL     1      40.007  21.600  18.467  0.00  0.00    +0.256 C 
ENDBRANCH  16  17
BRANCH   8   7
ATOM      7  O   UNL     1      47.457  19.583  21.514  0.00  0.00    -0.203 OA
BRANCH   7   6
ATOM      3  C   UNL     1      50.044  19.614  18.297  0.00  0.00    +0.144 A 
ATOM      4  C   UNL     1      49.608  20.810  18.848  0.00  0.00    -0.058 A 
ATOM      5  C   UNL     1      48.742  20.801  19.924  0.00  0.00    +0.062 A 
ATOM      6  C   UNL     1      48.309  19.594  20.454  0.00  0.00    +0.010 A 
ATOM     23  C   UNL     1      48.744  18.397  19.902  0.00  0.00    +0.076 A 
ATOM     24  C   UNL     1      49.606  18.407  18.823  0.00  0.00    +0.004 A 
BRANCH   3   2
ATOM      1  C   UNL     1      51.030  18.404  16.503  0.00  0.00    +0.247 C 
ATOM      2  O   UNL     1      50.895  19.623  17.237  0.00  0.00    -0.312 OA
ENDBRANCH   3   2
ENDBRANCH   7   6
ENDBRANCH   8   7
TORSDOF 5
ENDMDL
MODEL 4
REMARK VINA RESULT:      -5.2      1.587      3.733
REMARK  Name = ZINC95486296
REMARK  8 active torsions:
REMARK  status: ('A' for Active; 'I' for Inactive)
REMARK    1  A    between atoms: C1_1  and  O1_2
REMARK    2  A    between atoms: O1_2  and  C2_3
REMARK    3  A    between atoms: C5_6  and  O2_9
REMARK    4  A    between atoms: O2_9  and  C8_10
REMARK    5  A    between atoms: C9_11  and  O6_23
REMARK    6  A    between atoms: C14_17  and  O5_21
REMARK    7  A    between atoms: O5_21  and  C17_22
REMARK    8  A    between atoms: O6_23  and  C18_24
REMARK                            x       y       z     vdW  Elec       q    Type
REMARK                         _______ _______ _______ _____ _____    ______ ____
ROOT
ATOM      8  C   UNL     1      45.947  19.692  20.347  0.00  0.00    +0.230 A 
ATOM      9  C   UNL     1      47.004  20.547  20.337  0.00  0.00    -0.084 A 
ATOM     12  C   UNL     1      48.178  20.198  19.632  0.00  0.00    +0.444 A 
ATOM     13  C   UNL     1      48.188  18.900  18.933  0.00  0.00    -0.252 A 
ATOM     14  C   UNL     1      49.303  18.473  18.213  0.00  0.00    +0.169 A 
ATOM     15  C   UNL     1      49.279  17.263  17.578  0.00  0.00    -0.087 A 
ATOM     16  C   UNL     1      48.146  16.455  17.646  0.00  0.00    +0.197 A 
ATOM     19  C   UNL     1      47.030  16.866  18.357  0.00  0.00    -0.027 A 
ATOM     20  C   UNL     1      47.041  18.091  19.009  0.00  0.00    +0.200 A 
ATOM     21  O   UNL     1      49.146  20.942  19.603  0.00  0.00    -0.448 OA
ATOM     22  O   UNL     1      45.969  18.511  19.712  0.00  0.00    -0.232 OA
ENDROOT
BRANCH   9  10
ATOM     10  O   UNL     1      46.932  21.735  21.004  0.00  0.00    -0.286 OA
ATOM     11  C   UNL     1      47.411  21.752  22.350  0.00  0.00    +0.257 C 
ENDBRANCH   9  10
BRANCH  16  17
ATOM     17  O   UNL     1      48.134  15.256  17.010  0.00  0.00    -0.306 OA
ATOM     18  C   UNL     1      46.861  14.744  16.614  0.00  0.00    +0.256 C 
ENDBRANCH  16  17
BRANCH   8   7
ATOM      7  O   UNL     1      44.834  20.043  21.027  0.00  0.00    -0.203 OA
BRANCH   7   6
ATOM      3  C   UNL     1      41.305  20.405  18.915  0.00  0.00    +0.144 A 
ATOM      4  C   UNL     1      41.538  19.277  19.688  0.00  0.00    -0.058 A 
ATOM      5  C   UNL     1      42.719  19.155  20.395  0.00  0.00    +0.062 A 
ATOM      6  C   UNL     1      43.671  20.162  20.331  0.00  0.00    +0.010 A 
ATOM     23  C   UNL     1      43.439  21.290  19.557  0.00  0.00    +0.076 A 
ATOM     24  C   UNL     1      42.261  21.409  18.847  0.00  0.00    +0.004 A 
BRANCH   3   2
ATOM      1  C   UNL     1      39.222  21.522  18.662  0.00  0.00    +0.247 C 
ATOM      2  O   UNL     1      40.144  20.524  18.218  0.00  0.00    -0.312 OA
ENDBRANCH   3   2
ENDBRANCH   7   6
ENDBRANCH   8   7
TORSDOF 5
ENDMDL
MODEL 5
REMARK VINA RESULT:      -5.2      1.675      6.706
REMARK  Name = ZINC95486296
REMARK  8 active torsions:
REMARK  status: ('A' for Active; 'I' for Inactive)
REMARK    1  A    between atoms: C1_1  and  O1_2
REMARK    2  A    between atoms: O1_2  and  C2_3
REMARK    3  A    between atoms: C5_6  and  O2_9
REMARK    4  A    between atoms: O2_9  and  C8_10
REMARK    5  A    between atoms: C9_11  and  O6_23
REMARK    6  A    between atoms: C14_17  and  O5_21
REMARK    7  A    between atoms: O5_21  and  C17_22
REMARK    8  A    between atoms: O6_23  and  C18_24
REMARK                            x       y       z     vdW  Elec       q    Type
REMARK                         _______ _______ _______ _____ _____    ______ ____
ROOT
ATOM      8  C   UNL     1      47.302  19.348  20.411  0.00  0.00    +0.230 A 
ATOM      9  C   UNL     1      46.464  18.278  20.428  0.00  0.00    -0.084 A 
ATOM     12  C   UNL     1      45.082  18.469  20.194  0.00  0.00    +0.444 A 
ATOM     13  C   UNL     1      44.623  19.847  19.940  0.00  0.00    -0.252 A 
ATOM     14  C   UNL     1      43.279  20.130  19.700  0.00  0.00    +0.169 A 
ATOM     15  C   UNL     1      42.887  21.419  19.469  0.00  0.00    -0.087 A 
ATOM     16  C   UNL     1      43.824  22.450  19.472  0.00  0.00    +0.197 A 
ATOM     19  C   UNL     1      45.163  22.185  19.708  0.00  0.00    -0.027 A 
ATOM     20  C   UNL     1      45.575  20.881  19.946  0.00  0.00    +0.200 A 
ATOM     21  O   UNL     1      44.301  17.531  20.203  0.00  0.00    -0.448 OA
ATOM     22  O   UNL     1      46.872  20.598  20.184  0.00  0.00    -0.232 OA
ENDROOT
BRANCH   9  10
ATOM     10  O   UNL     1      46.951  17.028  20.669  0.00  0.00    -0.286 OA
ATOM     11  C   UNL     1      47.233  16.212  19.531  0.00  0.00    +0.257 C 
ENDBRANCH   9  10
BRANCH  16  17
ATOM     17  O   UNL     1      43.421  23.726  19.240  0.00  0.00    -0.306 OA
ATOM     18  C   UNL     1      44.421  24.655  18.818  0.00  0.00    +0.256 C 
ENDBRANCH  16  17
BRANCH   8   7
ATOM      7  O   UNL     1      48.618  19.146  20.637  0.00  0.00    -0.203 OA
BRANCH   7   6
ATOM      3  C   UNL     1      51.287  20.275  17.696  0.00  0.00    +0.144 A 
ATOM      4  C   UNL     1      50.610  19.069  17.593  0.00  0.00    -0.058 A 
ATOM      5  C   UNL     1      49.717  18.690  18.576  0.00  0.00    +0.062 A 
ATOM      6  C   UNL     1      49.497  19.517  19.668  0.00  0.00    +0.010 A 
ATOM     23  C   UNL     1      50.175  20.724  19.773  0.00  0.00    +0.076 A 
ATOM     24  C   UNL     1      51.071  21.100  18.791  0.00  0.00    +0.004 A 
BRANCH   3   2
ATOM      1  C   UNL     1      52.280  19.789  15.592  0.00  0.00    +0.247 C 
ATOM      2  O   UNL     1      52.167  20.647  16.729  0.00  0.00    -0.312 OA
ENDBRANCH   3   2
ENDBRANCH   7   6
ENDBRANCH   8   7
TORSDOF 5
ENDMDL
MODEL 6
REMARK VINA RESULT:      -4.9      2.274      4.496
REMARK  Name = ZINC95486296
REMARK  8 active torsions:
REMARK  status: ('A' for Active; 'I' for Inactive)
REMARK    1  A    between atoms: C1_1  and  O1_2
REMARK    2  A    between atoms: O1_2  and  C2_3
REMARK    3  A    between atoms: C5_6  and  O2_9
REMARK    4  A    between atoms: O2_9  and  C8_10
REMARK    5  A    between atoms: C9_11  and  O6_23
REMARK    6  A    between atoms: C14_17  and  O5_21
REMARK    7  A    between atoms: O5_21  and  C17_22
REMARK    8  A    between atoms: O6_23  and  C18_24
REMARK                            x       y       z     vdW  Elec       q    Type
REMARK                         _______ _______ _______ _____ _____    ______ ____
ROOT
ATOM      8  C   UNL     1      46.310  17.829  19.987  0.00  0.00    +0.230 A 
ATOM      9  C   UNL     1      47.522  18.326  19.621  0.00  0.00    -0.084 A 
ATOM     12  C   UNL     1      48.328  17.601  18.714  0.00  0.00    +0.444 A 
ATOM     13  C   UNL     1      47.797  16.323  18.207  0.00  0.00    -0.252 A 
ATOM     14  C   UNL     1      48.523  15.541  17.309  0.00  0.00    +0.169 A 
ATOM     15  C   UNL     1      48.000  14.361  16.859  0.00  0.00    -0.087 A 
ATOM     16  C   UNL     1      46.747  13.936  17.294  0.00  0.00    +0.197 A 
ATOM     19  C   UNL     1      46.013  14.702  18.184  0.00  0.00    -0.027 A 
ATOM     20  C   UNL     1      46.531  15.902  18.651  0.00  0.00    +0.200 A 
ATOM     21  O   UNL     1      49.422  18.017  18.365  0.00  0.00    -0.448 OA
ATOM     22  O   UNL     1      45.839  16.663  19.523  0.00  0.00    -0.232 OA
ENDROOT
BRANCH   9  10
ATOM     10  O   UNL     1      47.957  19.515  20.127  0.00  0.00    -0.286 OA
ATOM     11  C   UNL     1      47.799  20.668  19.297  0.00  0.00    +0.257 C 
ENDBRANCH   9  10
BRANCH  16  17
ATOM     17  O   UNL     1      46.239  12.762  16.839  0.00  0.00    -0.306 OA
ATOM     18  C   UNL     1      47.055  12.007  15.942  0.00  0.00    +0.256 C 
ENDBRANCH  16  17
BRANCH   8   7
ATOM      7  O   UNL     1      45.554  18.536  20.855  0.00  0.00    -0.203 OA
BRANCH   7   6
ATOM      3  C   UNL     1      41.864  19.871  19.573  0.00  0.00    +0.144 A 
ATOM      4  C   UNL     1      43.016  20.281  18.919  0.00  0.00    -0.058 A 
ATOM      5  C   UNL     1      44.251  19.835  19.347  0.00  0.00    +0.062 A 
ATOM      6  C   UNL     1      44.339  18.976  20.433  0.00  0.00    +0.010 A 
ATOM     23  C   UNL     1      43.187  18.566  21.089  0.00  0.00    +0.076 A 
ATOM     24  C   UNL     1      41.952  19.016  20.663  0.00  0.00    +0.004 A 
BRANCH   3   2
ATOM      1  C   UNL     1      40.599  21.613  18.564  0.00  0.00    +0.247 C 
ATOM      2  O   UNL     1      40.649  20.311  19.152  0.00  0.00    -0.312 OA
ENDBRANCH   3   2
ENDBRANCH   7   6
ENDBRANCH   8   7
TORSDOF 5
ENDMDL
MODEL 7
REMARK VINA RESULT:      -4.9      2.172      5.004
REMARK  Name = ZINC95486296
REMARK  8 active torsions:
REMARK  status: ('A' for Active; 'I' for Inactive)
REMARK    1  A    between atoms: C1_1  and  O1_2
REMARK    2  A    between atoms: O1_2  and  C2_3
REMARK    3  A    between atoms: C5_6  and  O2_9
REMARK    4  A    between atoms: O2_9  and  C8_10
REMARK    5  A    between atoms: C9_11  and  O6_23
REMARK    6  A    between atoms: C14_17  and  O5_21
REMARK    7  A    between atoms: O5_21  and  C17_22
REMARK    8  A    between atoms: O6_23  and  C18_24
REMARK                            x       y       z     vdW  Elec       q    Type
REMARK                         _______ _______ _______ _____ _____    ______ ____
ROOT
ATOM      8  C   UNL     1      49.507  19.970  18.780  0.00  0.00    +0.230 A 
ATOM      9  C   UNL     1      50.848  20.151  18.652  0.00  0.00    -0.084 A 
ATOM     12  C   UNL     1      51.649  19.100  18.149  0.00  0.00    +0.444 A 
ATOM     13  C   UNL     1      50.969  17.844  17.786  0.00  0.00    -0.252 A 
ATOM     14  C   UNL     1      51.679  16.754  17.283  0.00  0.00    +0.169 A 
ATOM     15  C   UNL     1      51.017  15.605  16.956  0.00  0.00    -0.087 A 
ATOM     16  C   UNL     1      49.636  15.516  17.124  0.00  0.00    +0.197 A 
ATOM     19  C   UNL     1      48.917  16.590  17.622  0.00  0.00    -0.027 A 
ATOM     20  C   UNL     1      49.576  17.764  17.959  0.00  0.00    +0.200 A 
ATOM     21  O   UNL     1      52.857  19.228  18.022  0.00  0.00    -0.448 OA
ATOM     22  O   UNL     1      48.899  18.821  18.451  0.00  0.00    -0.232 OA
ENDROOT
BRANCH   9  10
ATOM     10  O   UNL     1      51.418  21.338  19.006  0.00  0.00    -0.286 OA
ATOM     11  C   UNL     1      52.012  21.410  20.304  0.00  0.00    +0.257 C 
ENDBRANCH   9  10
BRANCH  16  17
ATOM     17  O   UNL     1      48.990  14.367  16.795  0.00  0.00    -0.306 OA
ATOM     18  C   UNL     1      47.567  14.431  16.694  0.00  0.00    +0.256 C 
ENDBRANCH  16  17
BRANCH   8   7
ATOM      7  O   UNL     1      48.758  20.986  19.263  0.00  0.00    -0.203 OA
BRANCH   7   6
ATOM      3  C   UNL     1      44.844  20.185  20.303  0.00  0.00    +0.144 A 
ATOM      4  C   UNL     1      45.865  19.955  21.214  0.00  0.00    -0.058 A 
ATOM      5  C   UNL     1      47.174  20.223  20.867  0.00  0.00    +0.062 A 
ATOM      6  C   UNL     1      47.469  20.722  19.606  0.00  0.00    +0.010 A 
ATOM     23  C   UNL     1      46.448  20.950  18.694  0.00  0.00    +0.076 A 
ATOM     24  C   UNL     1      45.139  20.678  19.040  0.00  0.00    +0.004 A 
BRANCH   3   2
ATOM      1  C   UNL     1      42.639  19.671  19.576  0.00  0.00    +0.247 C 
ATOM      2  O   UNL     1      43.555  19.920  20.644  0.00  0.00    -0.312 OA
ENDBRANCH   3   2
ENDBRANCH   7   6
ENDBRANCH   8   7
TORSDOF 5
ENDMDL
MODEL 8
REMARK VINA RESULT:      -4.9      2.725      7.029
REMARK  Name = ZINC95486296
REMARK  8 active torsions:
REMARK  status: ('A' for Active; 'I' for Inactive)
REMARK    1  A    between atoms: C1_1  and  O1_2
REMARK    2  A    between atoms: O1_2  and  C2_3
REMARK    3  A    between atoms: C5_6  and  O2_9
REMARK    4  A    between atoms: O2_9  and  C8_10
REMARK    5  A    between atoms: C9_11  and  O6_23
REMARK    6  A    between atoms: C14_17  and  O5_21
REMARK    7  A    between atoms: O5_21  and  C17_22
REMARK    8  A    between atoms: O6_23  and  C18_24
REMARK                            x       y       z     vdW  Elec       q    Type
REMARK                         _______ _______ _______ _____ _____    ______ ____
ROOT
ATOM      8  C   UNL     1      46.664  16.965  19.562  0.00  0.00    +0.230 A 
ATOM      9  C   UNL     1      47.501  17.977  19.209  0.00  0.00    -0.084 A 
ATOM     12  C   UNL     1      46.992  19.288  19.071  0.00  0.00    +0.444 A 
ATOM     13  C   UNL     1      45.553  19.486  19.323  0.00  0.00    -0.252 A 
ATOM     14  C   UNL     1      44.964  20.746  19.210  0.00  0.00    +0.169 A 
ATOM     15  C   UNL     1      43.627  20.893  19.451  0.00  0.00    -0.087 A 
ATOM     16  C   UNL     1      42.850  19.793  19.807  0.00  0.00    +0.197 A 
ATOM     19  C   UNL     1      43.421  18.536  19.924  0.00  0.00    -0.027 A 
ATOM     20  C   UNL     1      44.777  18.371  19.682  0.00  0.00    +0.200 A 
ATOM     21  O   UNL     1      47.716  20.220  18.755  0.00  0.00    -0.448 OA
ATOM     22  O   UNL     1      45.355  17.156  19.784  0.00  0.00    -0.232 OA
ENDROOT
BRANCH   9  10
ATOM     10  O   UNL     1      48.824  17.728  18.990  0.00  0.00    -0.286 OA
ATOM     11  C   UNL     1      49.234  17.556  17.632  0.00  0.00    +0.257 C 
ENDBRANCH   9  10
BRANCH  16  17
ATOM     17  O   UNL     1      41.523  19.954  20.043  0.00  0.00    -0.306 OA
ATOM     18  C   UNL     1      40.925  19.084  21.005  0.00  0.00    +0.256 C 
ENDBRANCH  16  17
BRANCH   8   7
ATOM      7  O   UNL     1      47.169  15.718  19.688  0.00  0.00    -0.203 OA
BRANCH   7   6
ATOM      3  C   UNL     1      45.605  12.741  17.294  0.00  0.00    +0.144 A 
ATOM      4  C   UNL     1      46.588  13.585  16.799  0.00  0.00    -0.058 A 
ATOM      5  C   UNL     1      47.112  14.581  17.599  0.00  0.00    +0.062 A 
ATOM      6  C   UNL     1      46.654  14.738  18.899  0.00  0.00    +0.010 A 
ATOM     23  C   UNL     1      45.669  13.895  19.395  0.00  0.00    +0.076 A 
ATOM     24  C   UNL     1      45.143  12.901  18.593  0.00  0.00    +0.004 A 
BRANCH   3   2
ATOM      1  C   UNL     1      46.017  10.847  15.918  0.00  0.00    +0.247 C 
ATOM      2  O   UNL     1      45.089  11.761  16.505  0.00  0.00    -0.312 OA
ENDBRANCH   3   2
ENDBRANCH   7   6
ENDBRANCH   8   7
TORSDOF 5
ENDMDL
MODEL 9
REMARK VINA RESULT:      -4.9      1.804      3.024
REMARK  Name = ZINC95486296
REMARK  8 active torsions:
REMARK  status: ('A' for Active; 'I' for Inactive)
REMARK    1  A    between atoms: C1_1  and  O1_2
REMARK    2  A    between atoms: O1_2  and  C2_3
REMARK    3  A    between atoms: C5_6  and  O2_9
REMARK    4  A    between atoms: O2_9  and  C8_10
REMARK    5  A    between atoms: C9_11  and  O6_23
REMARK    6  A    between atoms: C14_17  and  O5_21
REMARK    7  A    between atoms: O5_21  and  C17_22
REMARK    8  A    between atoms: O6_23  and  C18_24
REMARK                            x       y       z     vdW  Elec       q    Type
REMARK                         _______ _______ _______ _____ _____    ______ ____
ROOT
ATOM      8  C   UNL     1      48.254  17.182  18.558  0.00  0.00    +0.230 A 
ATOM      9  C   UNL     1      49.022  16.399  17.755  0.00  0.00    -0.084 A 
ATOM     12  C   UNL     1      50.309  16.842  17.372  0.00  0.00    +0.444 A 
ATOM     13  C   UNL     1      50.751  18.155  17.876  0.00  0.00    -0.252 A 
ATOM     14  C   UNL     1      52.004  18.673  17.549  0.00  0.00    +0.169 A 
ATOM     15  C   UNL     1      52.381  19.893  18.034  0.00  0.00    -0.087 A 
ATOM     16  C   UNL     1      51.521  20.622  18.852  0.00  0.00    +0.197 A 
ATOM     19  C   UNL     1      50.274  20.122  19.186  0.00  0.00    -0.027 A 
ATOM     20  C   UNL     1      49.876  18.884  18.700  0.00  0.00    +0.200 A 
ATOM     21  O   UNL     1      51.025  16.165  16.652  0.00  0.00    -0.448 OA
ATOM     22  O   UNL     1      48.664  18.377  19.007  0.00  0.00    -0.232 OA
ENDROOT
BRANCH   9  10
ATOM     10  O   UNL     1      48.556  15.193  17.322  0.00  0.00    -0.286 OA
ATOM     11  C   UNL     1      48.866  14.052  18.124  0.00  0.00    +0.257 C 
ENDBRANCH   9  10
BRANCH  16  17
ATOM     17  O   UNL     1      51.909  21.834  19.326  0.00  0.00    -0.306 OA
ATOM     18  C   UNL     1      52.680  21.843  20.529  0.00  0.00    +0.256 C 
ENDBRANCH  16  17
BRANCH   8   7
ATOM      7  O   UNL     1      47.027  16.741  18.913  0.00  0.00    -0.203 OA
BRANCH   7   6
ATOM      3  C   UNL     1      44.082  19.551  19.600  0.00  0.00    +0.144 A 
ATOM      4  C   UNL     1      44.421  18.644  20.593  0.00  0.00    -0.058 A 
ATOM      5  C   UNL     1      45.406  17.704  20.364  0.00  0.00    +0.062 A 
ATOM      6  C   UNL     1      46.057  17.667  19.139  0.00  0.00    +0.010 A 
ATOM     23  C   UNL     1      45.718  18.573  18.145  0.00  0.00    +0.076 A 
ATOM     24  C   UNL     1      44.729  19.511  18.373  0.00  0.00    +0.004 A 
BRANCH   3   2
ATOM      1  C   UNL     1      42.104  20.616  18.821  0.00  0.00    +0.247 C 
ATOM      2  O   UNL     1      43.112  20.476  19.825  0.00  0.00    -0.312 OA
ENDBRANCH   3   2
ENDBRANCH   7   6
ENDBRANCH   8   7
TORSDOF 5
ENDMDL
