MODEL 1
REMARK VINA RESULT:      -5.8      0.000      0.000
REMARK  Name = ZINC00056792
REMARK  8 active torsions:
REMARK  status: ('A' for Active; 'I' for Inactive)
REMARK    1  A    between atoms: C1_1  and  N1_2
REMARK    2  A    between atoms: C6_7  and  O4_25
REMARK    3  A    between atoms: C7_8  and  O3_23
REMARK    4  A    between atoms: C14_16  and  O2_22
REMARK    5  A    between atoms: C15_17  and  O1_20
REMARK    6  A    between atoms: O1_20  and  C18_21
REMARK    7  A    between atoms: O3_23  and  C19_24
REMARK    8  A    between atoms: O4_25  and  C20_26
REMARK                            x       y       z     vdW  Elec       q    Type
REMARK                         _______ _______ _______ _____ _____    ______ ____
ROOT
ATOM      1  C   UNL     1      45.825  14.407  18.732  0.00  0.00    +0.197 C 
ATOM      2  N   UNL     1      46.755  15.545  18.748  0.00  0.00    -0.534 NA
ATOM      3  C   UNL     1      47.732  15.407  17.663  0.00  0.00    +0.175 C 
ATOM      4  C   UNL     1      48.858  16.412  17.823  0.00  0.00    +0.090 C 
ATOM      5  C   UNL     1      48.366  17.740  18.326  0.00  0.00    -0.033 A 
ATOM      6  C   UNL     1      49.293  18.771  18.434  0.00  0.00    -0.065 A 
ATOM      7  C   UNL     1      48.912  20.009  18.909  0.00  0.00    +0.109 A 
ATOM     10  C   UNL     1      47.584  20.234  19.269  0.00  0.00    +0.098 A 
ATOM     13  C   UNL     1      46.641  19.227  19.115  0.00  0.00    -0.018 A 
ATOM     14  C   UNL     1      45.201  19.435  19.384  0.00  0.00    -0.033 A 
ATOM     15  C   UNL     1      44.567  20.659  19.189  0.00  0.00    +0.118 A 
ATOM     18  C   UNL     1      43.225  20.809  19.539  0.00  0.00    +0.089 A 
ATOM     21  C   UNL     1      42.504  19.728  20.016  0.00  0.00    -0.053 A 
ATOM     22  C   UNL     1      43.109  18.486  20.119  0.00  0.00    +0.043 A 
ATOM     23  C   UNL     1      44.434  18.335  19.773  0.00  0.00    -0.095 A 
ATOM     24  C   UNL     1      45.084  16.975  19.831  0.00  0.00    +0.106 C 
ATOM     25  C   UNL     1      47.055  17.956  18.680  0.00  0.00    -0.089 A 
ATOM     26  C   UNL     1      46.051  16.830  18.655  0.00  0.00    +0.192 C 
ENDROOT
BRANCH   7   8
ATOM      8  O   UNL     1      49.825  21.010  19.026  0.00  0.00    -0.302 OA
ATOM      9  C   UNL     1      50.941  20.978  18.134  0.00  0.00    +0.238 C 
ENDBRANCH   7   8
BRANCH  10  11
ATOM     11  O   UNL     1      47.266  21.432  19.831  0.00  0.00    -0.298 OA
ATOM     12  C   UNL     1      47.491  21.571  21.235  0.00  0.00    +0.213 C 
ENDBRANCH  10  11
BRANCH  15  16
ATOM     16  O   UNL     1      45.203  21.707  18.600  0.00  0.00    -0.461 OA
ATOM     17  H   UNL     1      44.947  22.570  18.953  0.00  0.00    +0.382 HD
ENDBRANCH  15  16
BRANCH  18  19
ATOM     19  O   UNL     1      42.627  22.024  19.408  0.00  0.00    -0.305 OA
ATOM     20  C   UNL     1      41.369  22.057  18.730  0.00  0.00    +0.237 C 
ENDBRANCH  18  19
TORSDOF 4
ENDMDL
MODEL 2
REMARK VINA RESULT:      -5.6      2.921      6.374
REMARK  Name = ZINC00056792
REMARK  8 active torsions:
REMARK  status: ('A' for Active; 'I' for Inactive)
REMARK    1  A    between atoms: C1_1  and  N1_2
REMARK    2  A    between atoms: C6_7  and  O4_25
REMARK    3  A    between atoms: C7_8  and  O3_23
REMARK    4  A    between atoms: C14_16  and  O2_22
REMARK    5  A    between atoms: C15_17  and  O1_20
REMARK    6  A    between atoms: O1_20  and  C18_21
REMARK    7  A    between atoms: O3_23  and  C19_24
REMARK    8  A    between atoms: O4_25  and  C20_26
REMARK                            x       y       z     vdW  Elec       q    Type
REMARK                         _______ _______ _______ _____ _____    ______ ____
ROOT
ATOM      1  C   UNL     1      45.061  22.465  19.966  0.00  0.00    +0.197 C 
ATOM      2  N   UNL     1      45.066  20.996  20.018  0.00  0.00    -0.534 NA
ATOM      3  C   UNL     1      43.787  20.474  19.527  0.00  0.00    +0.175 C 
ATOM      4  C   UNL     1      43.663  18.991  19.822  0.00  0.00    +0.090 C 
ATOM      5  C   UNL     1      44.970  18.267  19.653  0.00  0.00    -0.033 A 
ATOM      6  C   UNL     1      44.966  16.886  19.815  0.00  0.00    -0.065 A 
ATOM      7  C   UNL     1      46.135  16.163  19.695  0.00  0.00    +0.109 A 
ATOM     10  C   UNL     1      47.327  16.820  19.393  0.00  0.00    +0.098 A 
ATOM     13  C   UNL     1      47.331  18.191  19.177  0.00  0.00    -0.018 A 
ATOM     14  C   UNL     1      48.543  18.929  18.756  0.00  0.00    -0.033 A 
ATOM     15  C   UNL     1      49.532  18.360  17.959  0.00  0.00    +0.118 A 
ATOM     18  C   UNL     1      50.688  19.084  17.665  0.00  0.00    +0.089 A 
ATOM     21  C   UNL     1      50.824  20.389  18.107  0.00  0.00    -0.053 A 
ATOM     22  C   UNL     1      49.797  20.988  18.817  0.00  0.00    +0.043 A 
ATOM     23  C   UNL     1      48.654  20.276  19.108  0.00  0.00    -0.095 A 
ATOM     24  C   UNL     1      47.510  20.938  19.834  0.00  0.00    +0.106 C 
ATOM     25  C   UNL     1      46.143  18.920  19.355  0.00  0.00    -0.089 A 
ATOM     26  C   UNL     1      46.188  20.426  19.262  0.00  0.00    +0.192 C 
ENDROOT
BRANCH   7   8
ATOM      8  O   UNL     1      46.129  14.815  19.868  0.00  0.00    -0.302 OA
ATOM      9  C   UNL     1      45.638  14.023  18.785  0.00  0.00    +0.238 C 
ENDBRANCH   7   8
BRANCH  10  11
ATOM     11  O   UNL     1      48.477  16.092  19.385  0.00  0.00    -0.298 OA
ATOM     12  C   UNL     1      49.106  15.859  20.646  0.00  0.00    +0.213 C 
ENDBRANCH  10  11
BRANCH  15  16
ATOM     16  O   UNL     1      49.378  17.132  17.397  0.00  0.00    -0.461 OA
ATOM     17  H   UNL     1      48.488  16.961  17.062  0.00  0.00    +0.382 HD
ENDBRANCH  15  16
BRANCH  18  19
ATOM     19  O   UNL     1      51.682  18.502  16.941  0.00  0.00    -0.305 OA
ATOM     20  C   UNL     1      52.055  19.143  15.720  0.00  0.00    +0.237 C 
ENDBRANCH  18  19
TORSDOF 4
ENDMDL
MODEL 3
REMARK VINA RESULT:      -5.3      3.142      5.831
REMARK  Name = ZINC00056792
REMARK  8 active torsions:
REMARK  status: ('A' for Active; 'I' for Inactive)
REMARK    1  A    between atoms: C1_1  and  N1_2
REMARK    2  A    between atoms: C6_7  and  O4_25
REMARK    3  A    between atoms: C7_8  and  O3_23
REMARK    4  A    between atoms: C14_16  and  O2_22
REMARK    5  A    between atoms: C15_17  and  O1_20
REMARK    6  A    between atoms: O1_20  and  C18_21
REMARK    7  A    between atoms: O3_23  and  C19_24
REMARK    8  A    between atoms: O4_25  and  C20_26
REMARK                            x       y       z     vdW  Elec       q    Type
REMARK                         _______ _______ _______ _____ _____    ______ ____
ROOT
ATOM      1  C   UNL     1      44.340  19.843  19.124  0.00  0.00    +0.197 C 
ATOM      2  N   UNL     1      45.782  20.132  19.125  0.00  0.00    -0.534 NA
ATOM      3  C   UNL     1      46.153  20.817  20.367  0.00  0.00    +0.175 C 
ATOM      4  C   UNL     1      47.566  21.365  20.277  0.00  0.00    +0.090 C 
ATOM      5  C   UNL     1      48.488  20.437  19.537  0.00  0.00    -0.033 A 
ATOM      6  C   UNL     1      49.831  20.792  19.461  0.00  0.00    -0.065 A 
ATOM      7  C   UNL     1      50.728  19.995  18.779  0.00  0.00    +0.109 A 
ATOM     10  C   UNL     1      50.289  18.818  18.175  0.00  0.00    +0.098 A 
ATOM     13  C   UNL     1      48.961  18.429  18.292  0.00  0.00    -0.018 A 
ATOM     14  C   UNL     1      48.457  17.144  17.760  0.00  0.00    -0.033 A 
ATOM     15  C   UNL     1      49.242  15.996  17.693  0.00  0.00    +0.118 A 
ATOM     18  C   UNL     1      48.730  14.839  17.106  0.00  0.00    +0.089 A 
ATOM     21  C   UNL     1      47.423  14.807  16.651  0.00  0.00    -0.053 A 
ATOM     22  C   UNL     1      46.611  15.918  16.807  0.00  0.00    +0.043 A 
ATOM     23  C   UNL     1      47.114  17.062  17.387  0.00  0.00    -0.095 A 
ATOM     24  C   UNL     1      46.220  18.257  17.607  0.00  0.00    +0.106 C 
ATOM     25  C   UNL     1      48.050  19.277  18.944  0.00  0.00    -0.089 A 
ATOM     26  C   UNL     1      46.584  18.917  18.938  0.00  0.00    +0.192 C 
ENDROOT
BRANCH   7   8
ATOM      8  O   UNL     1      52.037  20.353  18.694  0.00  0.00    -0.302 OA
ATOM      9  C   UNL     1      52.538  21.225  19.709  0.00  0.00    +0.238 C 
ENDBRANCH   7   8
BRANCH  10  11
ATOM     11  O   UNL     1      51.176  18.112  17.424  0.00  0.00    -0.298 OA
ATOM     12  C   UNL     1      51.421  18.580  16.096  0.00  0.00    +0.213 C 
ENDBRANCH  10  11
BRANCH  15  16
ATOM     16  O   UNL     1      50.483  15.946  18.246  0.00  0.00    -0.461 OA
ATOM     17  H   UNL     1      50.558  15.332  18.988  0.00  0.00    +0.382 HD
ENDBRANCH  15  16
BRANCH  18  19
ATOM     19  O   UNL     1      49.522  13.739  16.982  0.00  0.00    -0.305 OA
ATOM     20  C   UNL     1      49.861  13.331  15.656  0.00  0.00    +0.237 C 
ENDBRANCH  18  19
TORSDOF 4
ENDMDL
MODEL 4
REMARK VINA RESULT:      -5.2      3.198      6.619
REMARK  Name = ZINC00056792
REMARK  8 active torsions:
REMARK  status: ('A' for Active; 'I' for Inactive)
REMARK    1  A    between atoms: C1_1  and  N1_2
REMARK    2  A    between atoms: C6_7  and  O4_25
REMARK    3  A    between atoms: C7_8  and  O3_23
REMARK    4  A    between atoms: C14_16  and  O2_22
REMARK    5  A    between atoms: C15_17  and  O1_20
REMARK    6  A    between atoms: O1_20  and  C18_21
REMARK    7  A    between atoms: O3_23  and  C19_24
REMARK    8  A    between atoms: O4_25  and  C20_26
REMARK                            x       y       z     vdW  Elec       q    Type
REMARK                         _______ _______ _______ _____ _____    ______ ____
ROOT
ATOM      1  C   UNL     1      52.588  19.011  18.608  0.00  0.00    +0.197 C 
ATOM      2  N   UNL     1      51.139  19.156  18.808  0.00  0.00    -0.534 NA
ATOM      3  C   UNL     1      50.725  20.526  18.486  0.00  0.00    +0.175 C 
ATOM      4  C   UNL     1      49.298  20.776  18.940  0.00  0.00    +0.090 C 
ATOM      5  C   UNL     1      48.417  19.576  18.733  0.00  0.00    -0.033 A 
ATOM      6  C   UNL     1      47.066  19.711  19.034  0.00  0.00    -0.065 A 
ATOM      7  C   UNL     1      46.206  18.642  18.886  0.00  0.00    +0.109 A 
ATOM     10  C   UNL     1      46.691  17.422  18.416  0.00  0.00    +0.098 A 
ATOM     13  C   UNL     1      48.027  17.295  18.062  0.00  0.00    -0.018 A 
ATOM     14  C   UNL     1      48.580  16.059  17.464  0.00  0.00    -0.033 A 
ATOM     15  C   UNL     1      47.831  15.218  16.646  0.00  0.00    +0.118 A 
ATOM     18  C   UNL     1      48.387  14.026  16.180  0.00  0.00    +0.089 A 
ATOM     21  C   UNL     1      49.703  13.711  16.473  0.00  0.00    -0.053 A 
ATOM     22  C   UNL     1      50.478  14.594  17.206  0.00  0.00    +0.043 A 
ATOM     23  C   UNL     1      49.931  15.771  17.666  0.00  0.00    -0.095 A 
ATOM     24  C   UNL     1      50.784  16.762  18.419  0.00  0.00    +0.106 C 
ATOM     25  C   UNL     1      48.901  18.376  18.269  0.00  0.00    -0.089 A 
ATOM     26  C   UNL     1      50.377  18.181  18.019  0.00  0.00    +0.192 C 
ENDROOT
BRANCH   7   8
ATOM      8  O   UNL     1      44.889  18.774  19.195  0.00  0.00    -0.302 OA
ATOM      9  C   UNL     1      44.235  19.966  18.755  0.00  0.00    +0.238 C 
ENDBRANCH   7   8
BRANCH  10  11
ATOM     11  O   UNL     1      45.839  16.363  18.382  0.00  0.00    -0.298 OA
ATOM     12  C   UNL     1      45.628  15.658  19.607  0.00  0.00    +0.213 C 
ENDBRANCH  10  11
BRANCH  15  16
ATOM     16  O   UNL     1      46.582  15.555  16.227  0.00  0.00    -0.461 OA
ATOM     17  H   UNL     1      46.552  15.919  15.332  0.00  0.00    +0.382 HD
ENDBRANCH  15  16
BRANCH  18  19
ATOM     19  O   UNL     1      47.631  13.176  15.435  0.00  0.00    -0.305 OA
ATOM     20  C   UNL     1      48.264  12.561  14.311  0.00  0.00    +0.237 C 
ENDBRANCH  18  19
TORSDOF 4
ENDMDL
MODEL 5
REMARK VINA RESULT:      -5.0      1.694      5.357
REMARK  Name = ZINC00056792
REMARK  8 active torsions:
REMARK  status: ('A' for Active; 'I' for Inactive)
REMARK    1  A    between atoms: C1_1  and  N1_2
REMARK    2  A    between atoms: C6_7  and  O4_25
REMARK    3  A    between atoms: C7_8  and  O3_23
REMARK    4  A    between atoms: C14_16  and  O2_22
REMARK    5  A    between atoms: C15_17  and  O1_20
REMARK    6  A    between atoms: O1_20  and  C18_21
REMARK    7  A    between atoms: O3_23  and  C19_24
REMARK    8  A    between atoms: O4_25  and  C20_26
REMARK                            x       y       z     vdW  Elec       q    Type
REMARK                         _______ _______ _______ _____ _____    ______ ____
ROOT
ATOM      1  C   UNL     1      47.664  13.408  17.200  0.00  0.00    +0.197 C 
ATOM      2  N   UNL     1      46.857  14.363  17.972  0.00  0.00    -0.534 NA
ATOM      3  C   UNL     1      46.258  13.690  19.130  0.00  0.00    +0.175 C 
ATOM      4  C   UNL     1      45.211  14.574  19.783  0.00  0.00    +0.090 C 
ATOM      5  C   UNL     1      45.614  16.023  19.786  0.00  0.00    -0.033 A 
ATOM      6  C   UNL     1      44.773  16.922  20.433  0.00  0.00    -0.065 A 
ATOM      7  C   UNL     1      45.074  18.269  20.456  0.00  0.00    +0.109 A 
ATOM     10  C   UNL     1      46.236  18.730  19.840  0.00  0.00    +0.098 A 
ATOM     13  C   UNL     1      47.107  17.833  19.238  0.00  0.00    -0.018 A 
ATOM     14  C   UNL     1      48.403  18.248  18.657  0.00  0.00    -0.033 A 
ATOM     15  C   UNL     1      49.151  19.309  19.161  0.00  0.00    +0.118 A 
ATOM     18  C   UNL     1      50.324  19.699  18.517  0.00  0.00    +0.089 A 
ATOM     21  C   UNL     1      50.784  18.994  17.418  0.00  0.00    -0.053 A 
ATOM     22  C   UNL     1      50.093  17.879  16.975  0.00  0.00    +0.043 A 
ATOM     23  C   UNL     1      48.934  17.490  17.610  0.00  0.00    -0.095 A 
ATOM     24  C   UNL     1      48.204  16.246  17.167  0.00  0.00    +0.106 C 
ATOM     25  C   UNL     1      46.762  16.472  19.177  0.00  0.00    -0.089 A 
ATOM     26  C   UNL     1      47.643  15.528  18.395  0.00  0.00    +0.192 C 
ENDROOT
BRANCH   7   8
ATOM      8  O   UNL     1      44.241  19.146  21.077  0.00  0.00    -0.302 OA
ATOM      9  C   UNL     1      42.878  19.163  20.648  0.00  0.00    +0.238 C 
ENDBRANCH   7   8
BRANCH  10  11
ATOM     11  O   UNL     1      46.447  20.073  19.791  0.00  0.00    -0.298 OA
ATOM     12  C   UNL     1      45.810  20.793  18.733  0.00  0.00    +0.213 C 
ENDBRANCH  10  11
BRANCH  15  16
ATOM     16  O   UNL     1      48.804  19.942  20.313  0.00  0.00    -0.461 OA
ATOM     17  H   UNL     1      49.528  20.430  20.728  0.00  0.00    +0.382 HD
ENDBRANCH  15  16
BRANCH  18  19
ATOM     19  O   UNL     1      51.017  20.777  18.974  0.00  0.00    -0.305 OA
ATOM     20  C   UNL     1      52.443  20.699  18.926  0.00  0.00    +0.237 C 
ENDBRANCH  18  19
TORSDOF 4
ENDMDL
MODEL 6
REMARK VINA RESULT:      -4.8      3.528      5.498
REMARK  Name = ZINC00056792
REMARK  8 active torsions:
REMARK  status: ('A' for Active; 'I' for Inactive)
REMARK    1  A    between atoms: C1_1  and  N1_2
REMARK    2  A    between atoms: C6_7  and  O4_25
REMARK    3  A    between atoms: C7_8  and  O3_23
REMARK    4  A    between atoms: C14_16  and  O2_22
REMARK    5  A    between atoms: C15_17  and  O1_20
REMARK    6  A    between atoms: O1_20  and  C18_21
REMARK    7  A    between atoms: O3_23  and  C19_24
REMARK    8  A    between atoms: O4_25  and  C20_26
REMARK                            x       y       z     vdW  Elec       q    Type
REMARK                         _______ _______ _______ _____ _____    ______ ____
ROOT
ATOM      1  C   UNL     1      52.207  18.505  15.516  0.00  0.00    +0.197 C 
ATOM      2  N   UNL     1      51.623  19.065  16.743  0.00  0.00    -0.534 NA
ATOM      3  C   UNL     1      51.463  20.517  16.602  0.00  0.00    +0.175 C 
ATOM      4  C   UNL     1      51.122  21.151  17.938  0.00  0.00    +0.090 C 
ATOM      5  C   UNL     1      50.196  20.294  18.754  0.00  0.00    -0.033 A 
ATOM      6  C   UNL     1      49.744  20.807  19.965  0.00  0.00    -0.065 A 
ATOM      7  C   UNL     1      48.908  20.063  20.773  0.00  0.00    +0.109 A 
ATOM     10  C   UNL     1      48.500  18.794  20.365  0.00  0.00    +0.098 A 
ATOM     13  C   UNL     1      48.904  18.296  19.134  0.00  0.00    -0.018 A 
ATOM     14  C   UNL     1      48.425  17.000  18.602  0.00  0.00    -0.033 A 
ATOM     15  C   UNL     1      47.160  16.491  18.885  0.00  0.00    +0.118 A 
ATOM     18  C   UNL     1      46.801  15.226  18.418  0.00  0.00    +0.089 A 
ATOM     21  C   UNL     1      47.672  14.506  17.618  0.00  0.00    -0.053 A 
ATOM     22  C   UNL     1      48.891  15.054  17.256  0.00  0.00    +0.043 A 
ATOM     23  C   UNL     1      49.247  16.303  17.715  0.00  0.00    -0.095 A 
ATOM     24  C   UNL     1      50.550  16.928  17.282  0.00  0.00    +0.106 C 
ATOM     25  C   UNL     1      49.797  19.042  18.347  0.00  0.00    -0.089 A 
ATOM     26  C   UNL     1      50.344  18.430  17.080  0.00  0.00    +0.192 C 
ENDROOT
BRANCH   7   8
ATOM      8  O   UNL     1      48.480  20.563  21.962  0.00  0.00    -0.302 OA
ATOM      9  C   UNL     1      47.599  21.687  21.915  0.00  0.00    +0.238 C 
ENDBRANCH   7   8
BRANCH  10  11
ATOM     11  O   UNL     1      47.763  18.048  21.231  0.00  0.00    -0.298 OA
ATOM     12  C   UNL     1      48.476  17.319  22.231  0.00  0.00    +0.213 C 
ENDBRANCH  10  11
BRANCH  15  16
ATOM     16  O   UNL     1      46.229  17.221  19.554  0.00  0.00    -0.461 OA
ATOM     17  H   UNL     1      46.568  17.658  20.348  0.00  0.00    +0.382 HD
ENDBRANCH  15  16
BRANCH  18  19
ATOM     19  O   UNL     1      45.590  14.704  18.751  0.00  0.00    -0.305 OA
ATOM     20  C   UNL     1      45.464  13.281  18.707  0.00  0.00    +0.237 C 
ENDBRANCH  18  19
TORSDOF 4
ENDMDL
MODEL 7
REMARK VINA RESULT:      -4.8      3.437      6.154
REMARK  Name = ZINC00056792
REMARK  8 active torsions:
REMARK  status: ('A' for Active; 'I' for Inactive)
REMARK    1  A    between atoms: C1_1  and  N1_2
REMARK    2  A    between atoms: C6_7  and  O4_25
REMARK    3  A    between atoms: C7_8  and  O3_23
REMARK    4  A    between atoms: C14_16  and  O2_22
REMARK    5  A    between atoms: C15_17  and  O1_20
REMARK    6  A    between atoms: O1_20  and  C18_21
REMARK    7  A    between atoms: O3_23  and  C19_24
REMARK    8  A    between atoms: O4_25  and  C20_26
REMARK                            x       y       z     vdW  Elec       q    Type
REMARK                         _______ _______ _______ _____ _____    ______ ____
ROOT
ATOM      1  C   UNL     1      45.403  18.630  21.151  0.00  0.00    +0.197 C 
ATOM      2  N   UNL     1      46.097  17.549  20.437  0.00  0.00    -0.534 NA
ATOM      3  C   UNL     1      45.125  16.730  19.705  0.00  0.00    +0.175 C 
ATOM      4  C   UNL     1      45.775  15.459  19.187  0.00  0.00    +0.090 C 
ATOM      5  C   UNL     1      47.182  15.694  18.712  0.00  0.00    -0.033 A 
ATOM      6  C   UNL     1      47.854  14.621  18.137  0.00  0.00    -0.065 A 
ATOM      7  C   UNL     1      49.155  14.763  17.699  0.00  0.00    +0.109 A 
ATOM     10  C   UNL     1      49.795  15.995  17.819  0.00  0.00    +0.098 A 
ATOM     13  C   UNL     1      49.114  17.086  18.342  0.00  0.00    -0.018 A 
ATOM     14  C   UNL     1      49.705  18.441  18.403  0.00  0.00    -0.033 A 
ATOM     15  C   UNL     1      50.615  18.909  17.459  0.00  0.00    +0.118 A 
ATOM     18  C   UNL     1      51.196  20.167  17.619  0.00  0.00    +0.089 A 
ATOM     21  C   UNL     1      50.819  20.979  18.675  0.00  0.00    -0.053 A 
ATOM     22  C   UNL     1      49.842  20.554  19.559  0.00  0.00    +0.043 A 
ATOM     23  C   UNL     1      49.266  19.312  19.403  0.00  0.00    -0.095 A 
ATOM     24  C   UNL     1      48.164  18.863  20.329  0.00  0.00    +0.106 C 
ATOM     25  C   UNL     1      47.808  16.912  18.833  0.00  0.00    -0.089 A 
ATOM     26  C   UNL     1      47.131  18.066  19.532  0.00  0.00    +0.192 C 
ENDROOT
BRANCH   7   8
ATOM      8  O   UNL     1      49.813  13.707  17.151  0.00  0.00    -0.302 OA
ATOM      9  C   UNL     1      49.361  13.253  15.873  0.00  0.00    +0.238 C 
ENDBRANCH   7   8
BRANCH  10  11
ATOM     11  O   UNL     1      51.109  16.072  17.474  0.00  0.00    -0.298 OA
ATOM     12  C   UNL     1      52.063  15.668  18.457  0.00  0.00    +0.213 C 
ENDBRANCH  10  11
BRANCH  15  16
ATOM     16  O   UNL     1      50.912  18.198  16.339  0.00  0.00    -0.461 OA
ATOM     17  H   UNL     1      50.212  17.593  16.061  0.00  0.00    +0.382 HD
ENDBRANCH  15  16
BRANCH  18  19
ATOM     19  O   UNL     1      52.134  20.594  16.732  0.00  0.00    -0.305 OA
ATOM     20  C   UNL     1      51.700  21.502  15.717  0.00  0.00    +0.237 C 
ENDBRANCH  18  19
TORSDOF 4
ENDMDL
MODEL 8
REMARK VINA RESULT:      -4.7      2.820      4.734
REMARK  Name = ZINC00056792
REMARK  8 active torsions:
REMARK  status: ('A' for Active; 'I' for Inactive)
REMARK    1  A    between atoms: C1_1  and  N1_2
REMARK    2  A    between atoms: C6_7  and  O4_25
REMARK    3  A    between atoms: C7_8  and  O3_23
REMARK    4  A    between atoms: C14_16  and  O2_22
REMARK    5  A    between atoms: C15_17  and  O1_20
REMARK    6  A    between atoms: O1_20  and  C18_21
REMARK    7  A    between atoms: O3_23  and  C19_24
REMARK    8  A    between atoms: O4_25  and  C20_26
REMARK                            x       y       z     vdW  Elec       q    Type
REMARK                         _______ _______ _______ _____ _____    ______ ____
ROOT
ATOM      1  C   UNL     1      51.582  21.194  19.797  0.00  0.00    +0.197 C 
ATOM      2  N   UNL     1      51.209  19.803  19.502  0.00  0.00    -0.534 NA
ATOM      3  C   UNL     1      51.989  18.888  20.341  0.00  0.00    +0.175 C 
ATOM      4  C   UNL     1      51.825  17.454  19.870  0.00  0.00    +0.090 C 
ATOM      5  C   UNL     1      50.422  17.165  19.414  0.00  0.00    -0.033 A 
ATOM      6  C   UNL     1      50.126  15.859  19.037  0.00  0.00    -0.065 A 
ATOM      7  C   UNL     1      48.863  15.530  18.588  0.00  0.00    +0.109 A 
ATOM     10  C   UNL     1      47.872  16.508  18.528  0.00  0.00    +0.098 A 
ATOM     13  C   UNL     1      48.144  17.801  18.953  0.00  0.00    -0.018 A 
ATOM     14  C   UNL     1      47.109  18.857  19.007  0.00  0.00    -0.033 A 
ATOM     15  C   UNL     1      45.769  18.586  19.269  0.00  0.00    +0.118 A 
ATOM     18  C   UNL     1      44.831  19.618  19.226  0.00  0.00    +0.089 A 
ATOM     21  C   UNL     1      45.238  20.920  18.991  0.00  0.00    -0.053 A 
ATOM     22  C   UNL     1      46.583  21.204  18.827  0.00  0.00    +0.043 A 
ATOM     23  C   UNL     1      47.511  20.188  18.870  0.00  0.00    -0.095 A 
ATOM     24  C   UNL     1      48.983  20.496  18.746  0.00  0.00    +0.106 C 
ATOM     25  C   UNL     1      49.449  18.134  19.356  0.00  0.00    -0.089 A 
ATOM     26  C   UNL     1      49.770  19.574  19.677  0.00  0.00    +0.192 C 
ENDROOT
BRANCH   7   8
ATOM      8  O   UNL     1      48.582  14.255  18.207  0.00  0.00    -0.302 OA
ATOM      9  C   UNL     1      49.316  13.732  17.098  0.00  0.00    +0.238 C 
ENDBRANCH   7   8
BRANCH  10  11
ATOM     11  O   UNL     1      46.671  16.173  17.983  0.00  0.00    -0.298 OA
ATOM     12  C   UNL     1      46.564  16.234  16.560  0.00  0.00    +0.213 C 
ENDBRANCH  10  11
BRANCH  15  16
ATOM     16  O   UNL     1      45.349  17.346  19.633  0.00  0.00    -0.461 OA
ATOM     17  H   UNL     1      45.828  16.974  20.386  0.00  0.00    +0.382 HD
ENDBRANCH  15  16
BRANCH  18  19
ATOM     19  O   UNL     1      43.513  19.339  19.417  0.00  0.00    -0.305 OA
ATOM     20  C   UNL     1      42.569  20.246  18.845  0.00  0.00    +0.237 C 
ENDBRANCH  18  19
TORSDOF 4
ENDMDL
MODEL 9
REMARK VINA RESULT:      -4.7     20.936     23.299
REMARK  Name = ZINC00056792
REMARK  8 active torsions:
REMARK  status: ('A' for Active; 'I' for Inactive)
REMARK    1  A    between atoms: C1_1  and  N1_2
REMARK    2  A    between atoms: C6_7  and  O4_25
REMARK    3  A    between atoms: C7_8  and  O3_23
REMARK    4  A    between atoms: C14_16  and  O2_22
REMARK    5  A    between atoms: C15_17  and  O1_20
REMARK    6  A    between atoms: O1_20  and  C18_21
REMARK    7  A    between atoms: O3_23  and  C19_24
REMARK    8  A    between atoms: O4_25  and  C20_26
REMARK                            x       y       z     vdW  Elec       q    Type
REMARK                         _______ _______ _______ _____ _____    ______ ____
ROOT
ATOM      1  C   UNL     1      50.431  33.733   4.029  0.00  0.00    +0.197 C 
ATOM      2  N   UNL     1      51.838  33.668   4.452  0.00  0.00    -0.534 NA
ATOM      3  C   UNL     1      51.923  33.175   5.830  0.00  0.00    +0.175 C 
ATOM      4  C   UNL     1      53.326  33.355   6.380  0.00  0.00    +0.090 C 
ATOM      5  C   UNL     1      54.380  33.091   5.341  0.00  0.00    -0.033 A 
ATOM      6  C   UNL     1      55.710  33.143   5.747  0.00  0.00    -0.065 A 
ATOM      7  C   UNL     1      56.728  32.931   4.840  0.00  0.00    +0.109 A 
ATOM     10  C   UNL     1      56.423  32.648   3.510  0.00  0.00    +0.098 A 
ATOM     13  C   UNL     1      55.098  32.541   3.108  0.00  0.00    -0.018 A 
ATOM     14  C   UNL     1      54.711  32.145   1.735  0.00  0.00    -0.033 A 
ATOM     15  C   UNL     1      55.473  31.276   0.958  0.00  0.00    +0.118 A 
ATOM     18  C   UNL     1      55.093  31.007  -0.356  0.00  0.00    +0.089 A 
ATOM     21  C   UNL     1      53.926  31.546  -0.869  0.00  0.00    -0.053 A 
ATOM     22  C   UNL     1      53.117  32.332  -0.065  0.00  0.00    +0.043 A 
ATOM     23  C   UNL     1      53.489  32.598   1.234  0.00  0.00    -0.095 A 
ATOM     24  C   UNL     1      52.587  33.409   2.132  0.00  0.00    +0.106 C 
ATOM     25  C   UNL     1      54.073  32.812   4.030  0.00  0.00    -0.089 A 
ATOM     26  C   UNL     1      52.643  32.837   3.549  0.00  0.00    +0.192 C 
ENDROOT
BRANCH   7   8
ATOM      8  O   UNL     1      58.026  32.998   5.238  0.00  0.00    -0.302 OA
ATOM      9  C   UNL     1      58.520  34.280   5.630  0.00  0.00    +0.238 C 
ENDBRANCH   7   8
BRANCH  10  11
ATOM     11  O   UNL     1      57.449  32.549   2.622  0.00  0.00    -0.298 OA
ATOM     12  C   UNL     1      57.912  33.762   2.027  0.00  0.00    +0.213 C 
ENDBRANCH  10  11
BRANCH  15  16
ATOM     16  O   UNL     1      56.552  30.624   1.467  0.00  0.00    -0.461 OA
ATOM     17  H   UNL     1      57.116  31.174   2.027  0.00  0.00    +0.382 HD
ENDBRANCH  15  16
BRANCH  18  19
ATOM     19  O   UNL     1      55.876  30.210  -1.134  0.00  0.00    -0.305 OA
ATOM     20  C   UNL     1      55.218  29.177  -1.870  0.00  0.00    +0.237 C 
ENDBRANCH  18  19
TORSDOF 4
ENDMDL
