MODEL 1
REMARK VINA RESULT:      -5.8      0.000      0.000
REMARK  Name = ZINC95485985
REMARK  7 active torsions:
REMARK  status: ('A' for Active; 'I' for Inactive)
REMARK    1  A    between atoms: C1_1  and  C2_2
REMARK    2  A    between atoms: C5_5  and  C20_24
REMARK    3  A    between atoms: C5_5  and  C21_25
REMARK    4  A    between atoms: C12_13  and  C13_15
REMARK    5  A    between atoms: C13_15  and  C14_16
REMARK    6  A    between atoms: C17_20  and  C18_21
REMARK    7  A    between atoms: C18_21  and  C19_22
REMARK                            x       y       z     vdW  Elec       q    Type
REMARK                         _______ _______ _______ _____ _____    ______ ____
ROOT
ATOM      1  C   UNL     1      47.994  17.872  20.210  0.00  0.00    +0.026 C 
ATOM      2  C   UNL     1      47.758  18.795  19.012  0.00  0.00    -0.041 C 
ATOM      3  C   UNL     1      48.081  20.238  19.405  0.00  0.00    +0.012 C 
ATOM      4  C   UNL     1      47.160  20.685  20.540  0.00  0.00    +0.017 C 
ATOM      5  C   UNL     1      45.705  20.604  20.069  0.00  0.00    -0.063 C 
ATOM      6  C   UNL     1      45.513  21.508  18.849  0.00  0.00    +0.019 C 
ATOM      7  C   UNL     1      44.777  21.062  21.196  0.00  0.00    +0.018 C 
ATOM      8  C   UNL     1      45.377  19.160  19.692  0.00  0.00    +0.020 C 
ATOM      9  C   UNL     1      48.673  18.378  17.855  0.00  0.00    +0.042 C 
ATOM     19  C   UNL     1      48.258  17.006  17.373  0.00  0.00    -0.111 C 
ATOM     20  C   UNL     1      49.135  16.042  17.250  0.00  0.00    -0.002 C 
ATOM     21  C   UNL     1      46.800  16.781  17.037  0.00  0.00    +0.047 C 
ATOM     22  C   UNL     1      45.955  17.243  18.228  0.00  0.00    +0.015 C 
ATOM     23  C   UNL     1      46.298  18.696  18.568  0.00  0.00    -0.002 C 
ENDROOT
BRANCH   9  10
ATOM     10  C   UNL     1      50.123  18.325  18.341  0.00  0.00    +0.105 C 
BRANCH  10  11
ATOM     11  C   UNL     1      50.997  19.119  17.404  0.00  0.00    -0.151 A 
ATOM     12  C   UNL     1      51.434  18.722  16.119  0.00  0.00    -0.054 A 
ATOM     13  C   UNL     1      52.187  19.726  15.637  0.00  0.00    +0.173 A 
ATOM     14  O   UNL     1      52.231  20.704  16.556  0.00  0.00    -0.173 OA
ATOM     15  C   UNL     1      51.507  20.343  17.627  0.00  0.00    -0.019 A 
BRANCH  15  16
ATOM     16  C   UNL     1      51.302  21.169  18.872  0.00  0.00    +0.119 C 
BRANCH  16  17
ATOM     17  C   UNL     1      52.573  21.179  19.683  0.00  0.00    +0.453 C 
ATOM     18  O   UNL     1      52.906  22.180  20.270  0.00  0.00    -0.449 OA
ENDBRANCH  16  17
ENDBRANCH  15  16
ENDBRANCH  10  11
ENDBRANCH   9  10
TORSDOF 4
ENDMDL
MODEL 2
REMARK VINA RESULT:      -5.4      1.413      4.301
REMARK  Name = ZINC95485985
REMARK  7 active torsions:
REMARK  status: ('A' for Active; 'I' for Inactive)
REMARK    1  A    between atoms: C1_1  and  C2_2
REMARK    2  A    between atoms: C5_5  and  C20_24
REMARK    3  A    between atoms: C5_5  and  C21_25
REMARK    4  A    between atoms: C12_13  and  C13_15
REMARK    5  A    between atoms: C13_15  and  C14_16
REMARK    6  A    between atoms: C17_20  and  C18_21
REMARK    7  A    between atoms: C18_21  and  C19_22
REMARK                            x       y       z     vdW  Elec       q    Type
REMARK                         _______ _______ _______ _____ _____    ______ ____
ROOT
ATOM      1  C   UNL     1      46.750  19.358  18.215  0.00  0.00    +0.026 C 
ATOM      2  C   UNL     1      47.818  18.579  18.987  0.00  0.00    -0.041 C 
ATOM      3  C   UNL     1      48.827  17.981  18.004  0.00  0.00    +0.012 C 
ATOM      4  C   UNL     1      48.117  17.010  17.060  0.00  0.00    +0.017 C 
ATOM      5  C   UNL     1      47.483  15.883  17.880  0.00  0.00    -0.063 C 
ATOM      6  C   UNL     1      48.573  15.150  18.667  0.00  0.00    +0.019 C 
ATOM      7  C   UNL     1      46.782  14.900  16.941  0.00  0.00    +0.018 C 
ATOM      8  C   UNL     1      46.464  16.478  18.850  0.00  0.00    +0.020 C 
ATOM      9  C   UNL     1      48.555  19.527  19.940  0.00  0.00    +0.042 C 
ATOM     19  C   UNL     1      47.586  20.005  20.998  0.00  0.00    -0.111 C 
ATOM     20  C   UNL     1      47.444  21.282  21.253  0.00  0.00    -0.002 C 
ATOM     21  C   UNL     1      46.787  18.967  21.754  0.00  0.00    +0.047 C 
ATOM     22  C   UNL     1      46.104  18.049  20.736  0.00  0.00    +0.015 C 
ATOM     23  C   UNL     1      47.155  17.460  19.791  0.00  0.00    -0.002 C 
ENDROOT
BRANCH   9  10
ATOM     10  C   UNL     1      49.085  20.731  19.159  0.00  0.00    +0.105 C 
BRANCH  10  11
ATOM     11  C   UNL     1      50.564  20.880  19.409  0.00  0.00    -0.151 A 
ATOM     12  C   UNL     1      51.208  20.906  20.668  0.00  0.00    -0.054 A 
ATOM     13  C   UNL     1      52.523  21.054  20.430  0.00  0.00    +0.173 A 
ATOM     14  O   UNL     1      52.710  21.119  19.101  0.00  0.00    -0.173 OA
ATOM     15  C   UNL     1      51.526  21.009  18.478  0.00  0.00    -0.019 A 
BRANCH  15  16
ATOM     16  C   UNL     1      51.310  21.030  16.986  0.00  0.00    +0.119 C 
BRANCH  16  17
ATOM     17  C   UNL     1      52.097  19.913  16.349  0.00  0.00    +0.453 C 
ATOM     18  O   UNL     1      51.522  19.029  15.761  0.00  0.00    -0.449 OA
ENDBRANCH  16  17
ENDBRANCH  15  16
ENDBRANCH  10  11
ENDBRANCH   9  10
TORSDOF 4
ENDMDL
MODEL 3
REMARK VINA RESULT:      -5.3      3.849      6.760
REMARK  Name = ZINC95485985
REMARK  7 active torsions:
REMARK  status: ('A' for Active; 'I' for Inactive)
REMARK    1  A    between atoms: C1_1  and  C2_2
REMARK    2  A    between atoms: C5_5  and  C20_24
REMARK    3  A    between atoms: C5_5  and  C21_25
REMARK    4  A    between atoms: C12_13  and  C13_15
REMARK    5  A    between atoms: C13_15  and  C14_16
REMARK    6  A    between atoms: C17_20  and  C18_21
REMARK    7  A    between atoms: C18_21  and  C19_22
REMARK                            x       y       z     vdW  Elec       q    Type
REMARK                         _______ _______ _______ _____ _____    ______ ____
ROOT
ATOM      1  C   UNL     1      47.606  18.273  18.545  0.00  0.00    +0.026 C 
ATOM      2  C   UNL     1      47.568  19.268  19.707  0.00  0.00    -0.041 C 
ATOM      3  C   UNL     1      48.114  20.620  19.242  0.00  0.00    +0.012 C 
ATOM      4  C   UNL     1      49.567  20.466  18.795  0.00  0.00    +0.017 C 
ATOM      5  C   UNL     1      50.406  19.961  19.972  0.00  0.00    -0.063 C 
ATOM      6  C   UNL     1      50.315  20.960  21.128  0.00  0.00    +0.019 C 
ATOM      7  C   UNL     1      51.865  19.816  19.534  0.00  0.00    +0.018 C 
ATOM      8  C   UNL     1      49.871  18.604  20.426  0.00  0.00    +0.020 C 
ATOM      9  C   UNL     1      46.120  19.452  20.178  0.00  0.00    +0.042 C 
ATOM     19  C   UNL     1      45.630  18.150  20.769  0.00  0.00    -0.111 C 
ATOM     20  C   UNL     1      44.502  17.613  20.374  0.00  0.00    -0.002 C 
ATOM     21  C   UNL     1      46.479  17.485  21.830  0.00  0.00    +0.047 C 
ATOM     22  C   UNL     1      47.909  17.361  21.295  0.00  0.00    +0.015 C 
ATOM     23  C   UNL     1      48.417  18.739  20.864  0.00  0.00    -0.002 C 
ENDROOT
BRANCH   9  10
ATOM     10  C   UNL     1      45.238  19.830  18.987  0.00  0.00    +0.105 C 
BRANCH  10  11
ATOM     11  C   UNL     1      44.534  21.132  19.275  0.00  0.00    -0.151 A 
ATOM     12  C   UNL     1      45.145  22.378  19.546  0.00  0.00    -0.054 A 
ATOM     13  C   UNL     1      44.153  23.263  19.743  0.00  0.00    +0.173 A 
ATOM     14  O   UNL     1      42.979  22.624  19.608  0.00  0.00    -0.173 OA
ATOM     15  C   UNL     1      43.205  21.332  19.319  0.00  0.00    -0.019 A 
BRANCH  15  16
ATOM     16  C   UNL     1      42.148  20.283  19.087  0.00  0.00    +0.119 C 
BRANCH  16  17
ATOM     17  C   UNL     1      40.894  20.940  18.568  0.00  0.00    +0.453 C 
ATOM     18  O   UNL     1      39.937  21.071  19.293  0.00  0.00    -0.449 OA
ENDBRANCH  16  17
ENDBRANCH  15  16
ENDBRANCH  10  11
ENDBRANCH   9  10
TORSDOF 4
ENDMDL
MODEL 4
REMARK VINA RESULT:      -5.3      3.818      6.625
REMARK  Name = ZINC95485985
REMARK  7 active torsions:
REMARK  status: ('A' for Active; 'I' for Inactive)
REMARK    1  A    between atoms: C1_1  and  C2_2
REMARK    2  A    between atoms: C5_5  and  C20_24
REMARK    3  A    between atoms: C5_5  and  C21_25
REMARK    4  A    between atoms: C12_13  and  C13_15
REMARK    5  A    between atoms: C13_15  and  C14_16
REMARK    6  A    between atoms: C17_20  and  C18_21
REMARK    7  A    between atoms: C18_21  and  C19_22
REMARK                            x       y       z     vdW  Elec       q    Type
REMARK                         _______ _______ _______ _____ _____    ______ ____
ROOT
ATOM      1  C   UNL     1      47.415  17.970  17.758  0.00  0.00    +0.026 C 
ATOM      2  C   UNL     1      47.446  18.222  19.267  0.00  0.00    -0.041 C 
ATOM      3  C   UNL     1      47.179  19.703  19.545  0.00  0.00    +0.012 C 
ATOM      4  C   UNL     1      48.269  20.556  18.897  0.00  0.00    +0.017 C 
ATOM      5  C   UNL     1      49.628  20.169  19.486  0.00  0.00    -0.063 C 
ATOM      6  C   UNL     1      49.612  20.398  20.999  0.00  0.00    +0.019 C 
ATOM      7  C   UNL     1      50.723  21.028  18.851  0.00  0.00    +0.018 C 
ATOM      8  C   UNL     1      49.902  18.694  19.195  0.00  0.00    +0.020 C 
ATOM      9  C   UNL     1      46.357  17.384  19.949  0.00  0.00    +0.042 C 
ATOM     19  C   UNL     1      46.700  15.920  19.796  0.00  0.00    -0.111 C 
ATOM     20  C   UNL     1      45.822  15.068  19.327  0.00  0.00    -0.002 C 
ATOM     21  C   UNL     1      48.086  15.467  20.201  0.00  0.00    +0.047 C 
ATOM     22  C   UNL     1      49.110  16.364  19.500  0.00  0.00    +0.015 C 
ATOM     23  C   UNL     1      48.815  17.831  19.825  0.00  0.00    -0.002 C 
ENDROOT
BRANCH   9  10
ATOM     10  C   UNL     1      45.006  17.659  19.286  0.00  0.00    +0.105 C 
BRANCH  10  11
ATOM     11  C   UNL     1      44.022  18.131  20.325  0.00  0.00    -0.151 A 
ATOM     12  C   UNL     1      43.710  17.486  21.544  0.00  0.00    -0.054 A 
ATOM     13  C   UNL     1      42.789  18.246  22.162  0.00  0.00    +0.173 A 
ATOM     14  O   UNL     1      42.526  19.311  21.386  0.00  0.00    -0.173 OA
ATOM     15  C   UNL     1      43.275  19.248  20.274  0.00  0.00    -0.019 A 
BRANCH  15  16
ATOM     16  C   UNL     1      43.277  20.258  19.154  0.00  0.00    +0.119 C 
BRANCH  16  17
ATOM     17  C   UNL     1      41.880  20.402  18.606  0.00  0.00    +0.453 C 
ATOM     18  O   UNL     1      41.164  21.289  19.004  0.00  0.00    -0.449 OA
ENDBRANCH  16  17
ENDBRANCH  15  16
ENDBRANCH  10  11
ENDBRANCH   9  10
TORSDOF 4
ENDMDL
MODEL 5
REMARK VINA RESULT:      -5.1      1.985      4.180
REMARK  Name = ZINC95485985
REMARK  7 active torsions:
REMARK  status: ('A' for Active; 'I' for Inactive)
REMARK    1  A    between atoms: C1_1  and  C2_2
REMARK    2  A    between atoms: C5_5  and  C20_24
REMARK    3  A    between atoms: C5_5  and  C21_25
REMARK    4  A    between atoms: C12_13  and  C13_15
REMARK    5  A    between atoms: C13_15  and  C14_16
REMARK    6  A    between atoms: C17_20  and  C18_21
REMARK    7  A    between atoms: C18_21  and  C19_22
REMARK                            x       y       z     vdW  Elec       q    Type
REMARK                         _______ _______ _______ _____ _____    ______ ____
ROOT
ATOM      1  C   UNL     1      46.540  17.515  17.580  0.00  0.00    +0.026 C 
ATOM      2  C   UNL     1      47.375  17.023  18.765  0.00  0.00    -0.041 C 
ATOM      3  C   UNL     1      48.106  15.736  18.375  0.00  0.00    +0.012 C 
ATOM      4  C   UNL     1      47.091  14.649  18.023  0.00  0.00    +0.017 C 
ATOM      5  C   UNL     1      46.203  14.376  19.240  0.00  0.00    -0.063 C 
ATOM      6  C   UNL     1      47.073  13.922  20.415  0.00  0.00    +0.019 C 
ATOM      7  C   UNL     1      45.192  13.280  18.899  0.00  0.00    +0.018 C 
ATOM      8  C   UNL     1      45.460  15.657  19.619  0.00  0.00    +0.020 C 
ATOM      9  C   UNL     1      48.411  18.089  19.141  0.00  0.00    +0.042 C 
ATOM     19  C   UNL     1      47.688  19.310  19.661  0.00  0.00    -0.111 C 
ATOM     20  C   UNL     1      47.941  20.500  19.176  0.00  0.00    -0.002 C 
ATOM     21  C   UNL     1      46.664  19.118  20.758  0.00  0.00    +0.047 C 
ATOM     22  C   UNL     1      45.685  18.026  20.318  0.00  0.00    +0.015 C 
ATOM     23  C   UNL     1      46.461  16.755  19.961  0.00  0.00    -0.002 C 
ENDROOT
BRANCH   9  10
ATOM     10  C   UNL     1      49.225  18.472  17.903  0.00  0.00    +0.105 C 
BRANCH  10  11
ATOM     11  C   UNL     1      50.695  18.431  18.236  0.00  0.00    -0.151 A 
ATOM     12  C   UNL     1      51.414  17.323  18.740  0.00  0.00    -0.054 A 
ATOM     13  C   UNL     1      52.689  17.723  18.891  0.00  0.00    +0.173 A 
ATOM     14  O   UNL     1      52.780  19.007  18.508  0.00  0.00    -0.173 OA
ATOM     15  C   UNL     1      51.575  19.439  18.105  0.00  0.00    -0.019 A 
BRANCH  15  16
ATOM     16  C   UNL     1      51.260  20.823  17.595  0.00  0.00    +0.119 C 
BRANCH  16  17
ATOM     17  C   UNL     1      51.758  20.961  16.178  0.00  0.00    +0.453 C 
ATOM     18  O   UNL     1      51.971  19.974  15.515  0.00  0.00    -0.449 OA
ENDBRANCH  16  17
ENDBRANCH  15  16
ENDBRANCH  10  11
ENDBRANCH   9  10
TORSDOF 4
ENDMDL
MODEL 6
REMARK VINA RESULT:      -5.0      1.597      2.141
REMARK  Name = ZINC95485985
REMARK  7 active torsions:
REMARK  status: ('A' for Active; 'I' for Inactive)
REMARK    1  A    between atoms: C1_1  and  C2_2
REMARK    2  A    between atoms: C5_5  and  C20_24
REMARK    3  A    between atoms: C5_5  and  C21_25
REMARK    4  A    between atoms: C12_13  and  C13_15
REMARK    5  A    between atoms: C13_15  and  C14_16
REMARK    6  A    between atoms: C17_20  and  C18_21
REMARK    7  A    between atoms: C18_21  and  C19_22
REMARK                            x       y       z     vdW  Elec       q    Type
REMARK                         _______ _______ _______ _____ _____    ______ ____
ROOT
ATOM      1  C   UNL     1      47.482  18.824  21.139  0.00  0.00    +0.026 C 
ATOM      2  C   UNL     1      47.311  19.742  19.926  0.00  0.00    -0.041 C 
ATOM      3  C   UNL     1      47.792  21.151  20.280  0.00  0.00    +0.012 C 
ATOM      4  C   UNL     1      46.951  21.713  21.426  0.00  0.00    +0.017 C 
ATOM      5  C   UNL     1      45.484  21.775  20.992  0.00  0.00    -0.063 C 
ATOM      6  C   UNL     1      45.355  22.670  19.757  0.00  0.00    +0.019 C 
ATOM      7  C   UNL     1      44.638  22.348  22.131  0.00  0.00    +0.018 C 
ATOM      8  C   UNL     1      45.000  20.366  20.655  0.00  0.00    +0.020 C 
ATOM      9  C   UNL     1      48.148  19.210  18.757  0.00  0.00    +0.042 C 
ATOM     19  C   UNL     1      47.581  17.880  18.316  0.00  0.00    -0.111 C 
ATOM     20  C   UNL     1      48.350  16.827  18.193  0.00  0.00    -0.002 C 
ATOM     21  C   UNL     1      46.099  17.800  18.021  0.00  0.00    +0.047 C 
ATOM     22  C   UNL     1      45.337  18.370  19.221  0.00  0.00    +0.015 C 
ATOM     23  C   UNL     1      45.837  19.786  19.521  0.00  0.00    -0.002 C 
ENDROOT
BRANCH   9  10
ATOM     10  C   UNL     1      49.597  19.017  19.209  0.00  0.00    +0.105 C 
BRANCH  10  11
ATOM     11  C   UNL     1      50.526  19.657  18.210  0.00  0.00    -0.151 A 
ATOM     12  C   UNL     1      50.532  21.014  17.814  0.00  0.00    -0.054 A 
ATOM     13  C   UNL     1      51.517  21.151  16.910  0.00  0.00    +0.173 A 
ATOM     14  O   UNL     1      52.106  19.957  16.737  0.00  0.00    -0.173 OA
ATOM     15  C   UNL     1      51.511  19.048  17.527  0.00  0.00    -0.019 A 
BRANCH  15  16
ATOM     16  C   UNL     1      51.883  17.590  17.629  0.00  0.00    +0.119 C 
BRANCH  16  17
ATOM     17  C   UNL     1      52.866  17.401  18.756  0.00  0.00    +0.453 C 
ATOM     18  O   UNL     1      52.481  17.018  19.834  0.00  0.00    -0.449 OA
ENDBRANCH  16  17
ENDBRANCH  15  16
ENDBRANCH  10  11
ENDBRANCH   9  10
TORSDOF 4
ENDMDL
MODEL 7
REMARK VINA RESULT:      -5.0      2.337      5.177
REMARK  Name = ZINC95485985
REMARK  7 active torsions:
REMARK  status: ('A' for Active; 'I' for Inactive)
REMARK    1  A    between atoms: C1_1  and  C2_2
REMARK    2  A    between atoms: C5_5  and  C20_24
REMARK    3  A    between atoms: C5_5  and  C21_25
REMARK    4  A    between atoms: C12_13  and  C13_15
REMARK    5  A    between atoms: C13_15  and  C14_16
REMARK    6  A    between atoms: C17_20  and  C18_21
REMARK    7  A    between atoms: C18_21  and  C19_22
REMARK                            x       y       z     vdW  Elec       q    Type
REMARK                         _______ _______ _______ _____ _____    ______ ____
ROOT
ATOM      1  C   UNL     1      48.800  18.594  20.738  0.00  0.00    +0.026 C 
ATOM      2  C   UNL     1      48.900  18.729  19.217  0.00  0.00    -0.041 C 
ATOM      3  C   UNL     1      50.271  18.237  18.748  0.00  0.00    +0.012 C 
ATOM      4  C   UNL     1      51.371  19.092  19.376  0.00  0.00    +0.017 C 
ATOM      5  C   UNL     1      51.184  20.549  18.946  0.00  0.00    -0.063 C 
ATOM      6  C   UNL     1      51.252  20.643  17.419  0.00  0.00    +0.019 C 
ATOM      7  C   UNL     1      52.289  21.410  19.560  0.00  0.00    +0.018 C 
ATOM      8  C   UNL     1      49.822  21.046  19.428  0.00  0.00    +0.020 C 
ATOM      9  C   UNL     1      47.812  17.876  18.554  0.00  0.00    +0.042 C 
ATOM     19  C   UNL     1      46.458  18.453  18.904  0.00  0.00    -0.111 C 
ATOM     20  C   UNL     1      45.512  17.695  19.398  0.00  0.00    -0.002 C 
ATOM     21  C   UNL     1      46.230  19.929  18.666  0.00  0.00    +0.047 C 
ATOM     22  C   UNL     1      47.366  20.707  19.336  0.00  0.00    +0.015 C 
ATOM     23  C   UNL     1      48.714  20.194  18.819  0.00  0.00    -0.002 C 
ENDROOT
BRANCH   9  10
ATOM     10  C   UNL     1      47.899  16.439  19.071  0.00  0.00    +0.105 C 
BRANCH  10  11
ATOM     11  C   UNL     1      47.882  15.483  17.907  0.00  0.00    -0.151 A 
ATOM     12  C   UNL     1      46.781  15.198  17.067  0.00  0.00    -0.054 A 
ATOM     13  C   UNL     1      47.204  14.295  16.164  0.00  0.00    +0.173 A 
ATOM     14  O   UNL     1      48.495  14.020  16.410  0.00  0.00    -0.173 OA
ATOM     15  C   UNL     1      48.912  14.741  17.463  0.00  0.00    -0.019 A 
BRANCH  15  16
ATOM     16  C   UNL     1      50.300  14.721  18.051  0.00  0.00    +0.119 C 
BRANCH  16  17
ATOM     17  C   UNL     1      51.317  14.803  16.941  0.00  0.00    +0.453 C 
ATOM     18  O   UNL     1      51.625  15.878  16.483  0.00  0.00    -0.449 OA
ENDBRANCH  16  17
ENDBRANCH  15  16
ENDBRANCH  10  11
ENDBRANCH   9  10
TORSDOF 4
ENDMDL
MODEL 8
REMARK VINA RESULT:      -4.9      1.106      2.339
REMARK  Name = ZINC95485985
REMARK  7 active torsions:
REMARK  status: ('A' for Active; 'I' for Inactive)
REMARK    1  A    between atoms: C1_1  and  C2_2
REMARK    2  A    between atoms: C5_5  and  C20_24
REMARK    3  A    between atoms: C5_5  and  C21_25
REMARK    4  A    between atoms: C12_13  and  C13_15
REMARK    5  A    between atoms: C13_15  and  C14_16
REMARK    6  A    between atoms: C17_20  and  C18_21
REMARK    7  A    between atoms: C18_21  and  C19_22
REMARK                            x       y       z     vdW  Elec       q    Type
REMARK                         _______ _______ _______ _____ _____    ______ ____
ROOT
ATOM      1  C   UNL     1      47.761  17.706  20.504  0.00  0.00    +0.026 C 
ATOM      2  C   UNL     1      48.000  18.861  19.528  0.00  0.00    -0.041 C 
ATOM      3  C   UNL     1      47.932  20.191  20.282  0.00  0.00    +0.012 C 
ATOM      4  C   UNL     1      46.544  20.368  20.898  0.00  0.00    +0.017 C 
ATOM      5  C   UNL     1      45.495  20.365  19.783  0.00  0.00    -0.063 C 
ATOM      6  C   UNL     1      45.785  21.507  18.806  0.00  0.00    +0.019 C 
ATOM      7  C   UNL     1      44.104  20.554  20.391  0.00  0.00    +0.018 C 
ATOM      8  C   UNL     1      45.551  19.031  19.041  0.00  0.00    +0.020 C 
ATOM      9  C   UNL     1      49.389  18.718  18.896  0.00  0.00    +0.042 C 
ATOM     19  C   UNL     1      49.408  17.475  18.035  0.00  0.00    -0.111 C 
ATOM     20  C   UNL     1      50.349  16.574  18.174  0.00  0.00    -0.002 C 
ATOM     21  C   UNL     1      48.310  17.302  17.009  0.00  0.00    +0.047 C 
ATOM     22  C   UNL     1      46.962  17.483  17.712  0.00  0.00    +0.015 C 
ATOM     23  C   UNL     1      46.934  18.834  18.431  0.00  0.00    -0.002 C 
ENDROOT
BRANCH   9  10
ATOM     10  C   UNL     1      50.444  18.587  19.996  0.00  0.00    +0.105 C 
BRANCH  10  11
ATOM     11  C   UNL     1      51.348  19.792  19.973  0.00  0.00    -0.151 A 
ATOM     12  C   UNL     1      51.427  20.806  20.955  0.00  0.00    -0.054 A 
ATOM     13  C   UNL     1      52.358  21.681  20.537  0.00  0.00    +0.173 A 
ATOM     14  O   UNL     1      52.845  21.254  19.360  0.00  0.00    -0.173 OA
ATOM     15  C   UNL     1      52.240  20.106  19.016  0.00  0.00    -0.019 A 
BRANCH  15  16
ATOM     16  C   UNL     1      52.511  19.306  17.768  0.00  0.00    +0.119 C 
BRANCH  16  17
ATOM     17  C   UNL     1      52.183  20.141  16.556  0.00  0.00    +0.453 C 
ATOM     18  O   UNL     1      51.314  20.978  16.617  0.00  0.00    -0.449 OA
ENDBRANCH  16  17
ENDBRANCH  15  16
ENDBRANCH  10  11
ENDBRANCH   9  10
TORSDOF 4
ENDMDL
MODEL 9
REMARK VINA RESULT:      -4.9      3.012      5.595
REMARK  Name = ZINC95485985
REMARK  7 active torsions:
REMARK  status: ('A' for Active; 'I' for Inactive)
REMARK    1  A    between atoms: C1_1  and  C2_2
REMARK    2  A    between atoms: C5_5  and  C20_24
REMARK    3  A    between atoms: C5_5  and  C21_25
REMARK    4  A    between atoms: C12_13  and  C13_15
REMARK    5  A    between atoms: C13_15  and  C14_16
REMARK    6  A    between atoms: C17_20  and  C18_21
REMARK    7  A    between atoms: C18_21  and  C19_22
REMARK                            x       y       z     vdW  Elec       q    Type
REMARK                         _______ _______ _______ _____ _____    ______ ____
ROOT
ATOM      1  C   UNL     1      49.012  18.276  20.652  0.00  0.00    +0.026 C 
ATOM      2  C   UNL     1      49.190  18.456  19.143  0.00  0.00    -0.041 C 
ATOM      3  C   UNL     1      50.640  18.155  18.758  0.00  0.00    +0.012 C 
ATOM      4  C   UNL     1      51.578  19.131  19.468  0.00  0.00    +0.017 C 
ATOM      5  C   UNL     1      51.231  20.561  19.045  0.00  0.00    -0.063 C 
ATOM      6  C   UNL     1      51.383  20.695  17.528  0.00  0.00    +0.019 C 
ATOM      7  C   UNL     1      52.174  21.543  19.742  0.00  0.00    +0.018 C 
ATOM      8  C   UNL     1      49.788  20.867  19.443  0.00  0.00    +0.020 C 
ATOM      9  C   UNL     1      48.266  17.485  18.398  0.00  0.00    +0.042 C 
ATOM     19  C   UNL     1      46.830  17.874  18.666  0.00  0.00    -0.111 C 
ATOM     20  C   UNL     1      45.960  16.990  19.088  0.00  0.00    -0.002 C 
ATOM     21  C   UNL     1      46.427  19.314  18.433  0.00  0.00    +0.047 C 
ATOM     22  C   UNL     1      47.408  20.217  19.186  0.00  0.00    +0.015 C 
ATOM     23  C   UNL     1      48.841  19.893  18.752  0.00  0.00    -0.002 C 
ENDROOT
BRANCH   9  10
ATOM     10  C   UNL     1      48.506  16.060  18.902  0.00  0.00    +0.105 C 
BRANCH  10  11
ATOM     11  C   UNL     1      49.043  15.213  17.777  0.00  0.00    -0.151 A 
ATOM     12  C   UNL     1      50.403  14.935  17.507  0.00  0.00    -0.054 A 
ATOM     13  C   UNL     1      50.430  14.144  16.420  0.00  0.00    +0.173 A 
ATOM     14  O   UNL     1      49.167  13.930  16.019  0.00  0.00    -0.173 OA
ATOM     15  C   UNL     1      48.322  14.571  16.842  0.00  0.00    -0.019 A 
BRANCH  15  16
ATOM     16  C   UNL     1      46.818  14.575  16.733  0.00  0.00    +0.119 C 
BRANCH  16  17
ATOM     17  C   UNL     1      46.258  13.392  17.482  0.00  0.00    +0.453 C 
ATOM     18  O   UNL     1      45.465  13.565  18.376  0.00  0.00    -0.449 OA
ENDBRANCH  16  17
ENDBRANCH  15  16
ENDBRANCH  10  11
ENDBRANCH   9  10
TORSDOF 4
ENDMDL
