MODEL 1
REMARK VINA RESULT:      -6.9      0.000      0.000
REMARK  Name = ZINC95486076
REMARK  9 active torsions:
REMARK  status: ('A' for Active; 'I' for Inactive)
REMARK    1  A    between atoms: C1_1  and  C2_2
REMARK    2  A    between atoms: C2_2  and  C20_27
REMARK    3  A    between atoms: C3_3  and  C4_4
REMARK    4  A    between atoms: C6_6  and  C11_13
REMARK    5  A    between atoms: C8_8  and  O2_12
REMARK    6  A    between atoms: C9_9  and  O1_10
REMARK    7  A    between atoms: O1_10  and  C10_11
REMARK    8  A    between atoms: C15_19  and  O6_26
REMARK    9  A    between atoms: C17_21  and  O5_25
REMARK                            x       y       z     vdW  Elec       q    Type
REMARK                         _______ _______ _______ _____ _____    ______ ____
ROOT
ATOM      8  C   UNL     1      44.918  19.072  19.745  0.00  0.00    +0.241 C 
ATOM      9  C   UNL     1      44.270  17.890  20.479  0.00  0.00    +0.040 C 
ATOM     10  C   UNL     1      42.996  18.406  21.124  0.00  0.00    +0.404 C 
ATOM     11  C   UNL     1      42.194  19.346  20.334  0.00  0.00    -0.294 A 
ATOM     12  C   UNL     1      40.888  19.680  20.726  0.00  0.00    +0.223 A 
ATOM     15  C   UNL     1      40.158  20.579  19.969  0.00  0.00    -0.074 A 
ATOM     16  C   UNL     1      40.717  21.143  18.829  0.00  0.00    +0.198 A 
ATOM     19  C   UNL     1      42.005  20.812  18.432  0.00  0.00    -0.052 A 
ATOM     20  C   UNL     1      42.753  19.913  19.174  0.00  0.00    +0.214 A 
ATOM     21  O   UNL     1      42.658  18.058  22.237  0.00  0.00    -0.431 OA
ATOM     22  O   UNL     1      44.004  19.586  18.776  0.00  0.00    -0.297 OA
ENDROOT
BRANCH   8   7
ATOM      5  C   UNL     1      48.571  18.436  18.986  0.00  0.00    -0.049 A 
ATOM      6  C   UNL     1      47.405  18.865  19.622  0.00  0.00    +0.045 A 
ATOM      7  C   UNL     1      46.174  18.607  19.055  0.00  0.00    -0.081 A 
ATOM     23  C   UNL     1      46.088  17.923  17.854  0.00  0.00    +0.034 A 
ATOM     24  C   UNL     1      47.238  17.492  17.212  0.00  0.00    +0.093 A 
ATOM     27  C   UNL     1      48.484  17.749  17.770  0.00  0.00    +0.088 A 
BRANCH   5   4
ATOM      1  C   UNL     1      49.820  20.927  18.540  0.00  0.00    +0.079 C 
ATOM      2  C   UNL     1      50.451  19.902  19.446  0.00  0.00    -0.102 C 
ATOM      3  C   UNL     1      51.720  20.233  20.190  0.00  0.00    +0.085 C 
ATOM      4  C   UNL     1      49.890  18.709  19.591  0.00  0.00    -0.011 C 
ENDBRANCH   5   4
BRANCH  24  25
ATOM     25  O   UNL     1      47.146  16.819  16.034  0.00  0.00    -0.489 OA
ATOM     26  H   UNL     1      47.628  15.980  16.021  0.00  0.00    +0.395 HD
ENDBRANCH  24  25
BRANCH  27  28
ATOM     28  O   UNL     1      49.614  17.332  17.140  0.00  0.00    -0.328 OA
ATOM     29  C   UNL     1      50.030  15.986  17.379  0.00  0.00    +0.231 C 
ENDBRANCH  27  28
ENDBRANCH   8   7
BRANCH  12  13
ATOM     13  O   UNL     1      40.346  19.125  21.839  0.00  0.00    -0.479 OA
ATOM     14  H   UNL     1      39.587  19.611  22.190  0.00  0.00    +0.404 HD
ENDBRANCH  12  13
BRANCH  16  17
ATOM     17  O   UNL     1      39.994  22.026  18.094  0.00  0.00    -0.490 OA
ATOM     18  H   UNL     1      40.171  21.985  17.144  0.00  0.00    +0.403 HD
ENDBRANCH  16  17
TORSDOF 6
ENDMDL
MODEL 2
REMARK VINA RESULT:      -6.3      3.026      4.289
REMARK  Name = ZINC95486076
REMARK  9 active torsions:
REMARK  status: ('A' for Active; 'I' for Inactive)
REMARK    1  A    between atoms: C1_1  and  C2_2
REMARK    2  A    between atoms: C2_2  and  C20_27
REMARK    3  A    between atoms: C3_3  and  C4_4
REMARK    4  A    between atoms: C6_6  and  C11_13
REMARK    5  A    between atoms: C8_8  and  O2_12
REMARK    6  A    between atoms: C9_9  and  O1_10
REMARK    7  A    between atoms: O1_10  and  C10_11
REMARK    8  A    between atoms: C15_19  and  O6_26
REMARK    9  A    between atoms: C17_21  and  O5_25
REMARK                            x       y       z     vdW  Elec       q    Type
REMARK                         _______ _______ _______ _____ _____    ______ ____
ROOT
ATOM      8  C   UNL     1      45.020  18.931  19.150  0.00  0.00    +0.241 C 
ATOM      9  C   UNL     1      45.656  19.718  20.305  0.00  0.00    +0.040 C 
ATOM     10  C   UNL     1      45.318  21.183  20.089  0.00  0.00    +0.404 C 
ATOM     11  C   UNL     1      43.962  21.481  19.618  0.00  0.00    -0.294 A 
ATOM     12  C   UNL     1      43.472  22.797  19.632  0.00  0.00    +0.223 A 
ATOM     15  C   UNL     1      42.193  23.052  19.171  0.00  0.00    -0.074 A 
ATOM     16  C   UNL     1      41.402  22.012  18.699  0.00  0.00    +0.198 A 
ATOM     19  C   UNL     1      41.879  20.708  18.688  0.00  0.00    -0.052 A 
ATOM     20  C   UNL     1      43.155  20.429  19.147  0.00  0.00    +0.214 A 
ATOM     21  O   UNL     1      46.129  22.061  20.297  0.00  0.00    -0.431 OA
ATOM     22  O   UNL     1      43.610  19.155  19.145  0.00  0.00    -0.297 OA
ENDROOT
BRANCH   8   7
ATOM      5  C   UNL     1      46.144  15.380  18.479  0.00  0.00    -0.049 A 
ATOM      6  C   UNL     1      45.887  16.742  18.314  0.00  0.00    +0.045 A 
ATOM      7  C   UNL     1      45.296  17.461  19.332  0.00  0.00    -0.081 A 
ATOM     23  C   UNL     1      44.954  16.837  20.520  0.00  0.00    +0.034 A 
ATOM     24  C   UNL     1      45.204  15.486  20.696  0.00  0.00    +0.093 A 
ATOM     27  C   UNL     1      45.794  14.749  19.677  0.00  0.00    +0.088 A 
BRANCH   5   4
ATOM      1  C   UNL     1      48.941  15.509  18.125  0.00  0.00    +0.079 C 
ATOM      2  C   UNL     1      48.099  14.605  17.263  0.00  0.00    -0.102 C 
ATOM      3  C   UNL     1      48.756  13.698  16.255  0.00  0.00    +0.085 C 
ATOM      4  C   UNL     1      46.778  14.608  17.391  0.00  0.00    -0.011 C 
ENDBRANCH   5   4
BRANCH  24  25
ATOM     25  O   UNL     1      44.868  14.880  21.867  0.00  0.00    -0.489 OA
ATOM     26  H   UNL     1      44.006  15.148  22.215  0.00  0.00    +0.395 HD
ENDBRANCH  24  25
BRANCH  27  28
ATOM     28  O   UNL     1      46.036  13.422  19.845  0.00  0.00    -0.328 OA
ATOM     29  C   UNL     1      47.242  13.063  20.522  0.00  0.00    +0.231 C 
ENDBRANCH  27  28
ENDBRANCH   8   7
BRANCH  12  13
ATOM     13  O   UNL     1      44.246  23.809  20.096  0.00  0.00    -0.479 OA
ATOM     14  H   UNL     1      44.096  24.024  21.026  0.00  0.00    +0.404 HD
ENDBRANCH  12  13
BRANCH  16  17
ATOM     17  O   UNL     1      40.150  22.272  18.245  0.00  0.00    -0.490 OA
ATOM     18  H   UNL     1      40.126  22.670  17.364  0.00  0.00    +0.403 HD
ENDBRANCH  16  17
TORSDOF 6
ENDMDL
MODEL 3
REMARK VINA RESULT:      -6.3      3.419      5.040
REMARK  Name = ZINC95486076
REMARK  9 active torsions:
REMARK  status: ('A' for Active; 'I' for Inactive)
REMARK    1  A    between atoms: C1_1  and  C2_2
REMARK    2  A    between atoms: C2_2  and  C20_27
REMARK    3  A    between atoms: C3_3  and  C4_4
REMARK    4  A    between atoms: C6_6  and  C11_13
REMARK    5  A    between atoms: C8_8  and  O2_12
REMARK    6  A    between atoms: C9_9  and  O1_10
REMARK    7  A    between atoms: O1_10  and  C10_11
REMARK    8  A    between atoms: C15_19  and  O6_26
REMARK    9  A    between atoms: C17_21  and  O5_25
REMARK                            x       y       z     vdW  Elec       q    Type
REMARK                         _______ _______ _______ _____ _____    ______ ____
ROOT
ATOM      8  C   UNL     1      44.786  18.741  19.770  0.00  0.00    +0.241 C 
ATOM      9  C   UNL     1      43.955  19.394  18.655  0.00  0.00    +0.040 C 
ATOM     10  C   UNL     1      43.498  20.747  19.171  0.00  0.00    +0.404 C 
ATOM     11  C   UNL     1      44.474  21.518  19.947  0.00  0.00    -0.294 A 
ATOM     12  C   UNL     1      44.244  22.870  20.248  0.00  0.00    +0.223 A 
ATOM     15  C   UNL     1      45.176  23.571  20.992  0.00  0.00    -0.074 A 
ATOM     16  C   UNL     1      46.331  22.938  21.435  0.00  0.00    +0.198 A 
ATOM     19  C   UNL     1      46.567  21.603  21.137  0.00  0.00    -0.052 A 
ATOM     20  C   UNL     1      45.649  20.883  20.392  0.00  0.00    +0.214 A 
ATOM     21  O   UNL     1      42.381  21.169  18.951  0.00  0.00    -0.431 OA
ATOM     22  O   UNL     1      45.890  19.585  20.094  0.00  0.00    -0.297 OA
ENDROOT
BRANCH   8   7
ATOM      5  C   UNL     1      45.571  15.041  19.641  0.00  0.00    -0.049 A 
ATOM      6  C   UNL     1      45.100  16.281  20.074  0.00  0.00    +0.045 A 
ATOM      7  C   UNL     1      45.296  17.404  19.298  0.00  0.00    -0.081 A 
ATOM     23  C   UNL     1      45.960  17.308  18.087  0.00  0.00    +0.034 A 
ATOM     24  C   UNL     1      46.433  16.083  17.645  0.00  0.00    +0.093 A 
ATOM     27  C   UNL     1      46.247  14.945  18.420  0.00  0.00    +0.088 A 
BRANCH   5   4
ATOM      1  C   UNL     1      47.186  14.616  21.916  0.00  0.00    +0.079 C 
ATOM      2  C   UNL     1      46.066  13.665  21.580  0.00  0.00    -0.102 C 
ATOM      3  C   UNL     1      45.747  12.519  22.505  0.00  0.00    +0.085 C 
ATOM      4  C   UNL     1      45.362  13.836  20.469  0.00  0.00    -0.011 C 
ENDBRANCH   5   4
BRANCH  24  25
ATOM     25  O   UNL     1      47.083  15.996  16.453  0.00  0.00    -0.489 OA
ATOM     26  H   UNL     1      46.534  16.218  15.688  0.00  0.00    +0.395 HD
ENDBRANCH  24  25
BRANCH  27  28
ATOM     28  O   UNL     1      46.714  13.742  17.991  0.00  0.00    -0.328 OA
ATOM     29  C   UNL     1      45.795  12.901  17.291  0.00  0.00    +0.231 C 
ENDBRANCH  27  28
ENDBRANCH   8   7
BRANCH  12  13
ATOM     13  O   UNL     1      43.117  23.484  19.810  0.00  0.00    -0.479 OA
ATOM     14  H   UNL     1      42.751  24.126  20.435  0.00  0.00    +0.404 HD
ENDBRANCH  12  13
BRANCH  16  17
ATOM     17  O   UNL     1      47.238  23.633  22.168  0.00  0.00    -0.490 OA
ATOM     18  H   UNL     1      47.970  23.992  21.649  0.00  0.00    +0.403 HD
ENDBRANCH  16  17
TORSDOF 6
ENDMDL
MODEL 4
REMARK VINA RESULT:      -6.2      2.116      2.894
REMARK  Name = ZINC95486076
REMARK  9 active torsions:
REMARK  status: ('A' for Active; 'I' for Inactive)
REMARK    1  A    between atoms: C1_1  and  C2_2
REMARK    2  A    between atoms: C2_2  and  C20_27
REMARK    3  A    between atoms: C3_3  and  C4_4
REMARK    4  A    between atoms: C6_6  and  C11_13
REMARK    5  A    between atoms: C8_8  and  O2_12
REMARK    6  A    between atoms: C9_9  and  O1_10
REMARK    7  A    between atoms: O1_10  and  C10_11
REMARK    8  A    between atoms: C15_19  and  O6_26
REMARK    9  A    between atoms: C17_21  and  O5_25
REMARK                            x       y       z     vdW  Elec       q    Type
REMARK                         _______ _______ _______ _____ _____    ______ ____
ROOT
ATOM      8  C   UNL     1      46.203  20.710  18.787  0.00  0.00    +0.241 C 
ATOM      9  C   UNL     1      46.099  21.792  19.871  0.00  0.00    +0.040 C 
ATOM     10  C   UNL     1      44.824  22.574  19.603  0.00  0.00    +0.404 C 
ATOM     11  C   UNL     1      43.653  21.796  19.186  0.00  0.00    -0.294 A 
ATOM     12  C   UNL     1      42.376  22.380  19.161  0.00  0.00    +0.223 A 
ATOM     15  C   UNL     1      41.290  21.627  18.752  0.00  0.00    -0.074 A 
ATOM     16  C   UNL     1      41.466  20.303  18.369  0.00  0.00    +0.198 A 
ATOM     19  C   UNL     1      42.725  19.718  18.397  0.00  0.00    -0.052 A 
ATOM     20  C   UNL     1      43.825  20.452  18.805  0.00  0.00    +0.214 A 
ATOM     21  O   UNL     1      44.777  23.780  19.729  0.00  0.00    -0.431 OA
ATOM     22  O   UNL     1      45.048  19.873  18.840  0.00  0.00    -0.297 OA
ENDROOT
BRANCH   8   7
ATOM      5  C   UNL     1      49.723  19.704  19.747  0.00  0.00    -0.049 A 
ATOM      6  C   UNL     1      48.578  20.471  19.526  0.00  0.00    +0.045 A 
ATOM      7  C   UNL     1      47.438  19.879  19.024  0.00  0.00    -0.081 A 
ATOM     23  C   UNL     1      47.422  18.524  18.738  0.00  0.00    +0.034 A 
ATOM     24  C   UNL     1      48.552  17.752  18.953  0.00  0.00    +0.093 A 
ATOM     27  C   UNL     1      49.709  18.337  19.453  0.00  0.00    +0.088 A 
BRANCH   5   4
ATOM      1  C   UNL     1      51.443  21.115  18.011  0.00  0.00    +0.079 C 
ATOM      2  C   UNL     1      51.721  21.060  19.490  0.00  0.00    -0.102 C 
ATOM      3  C   UNL     1      52.881  21.830  20.068  0.00  0.00    +0.085 C 
ATOM      4  C   UNL     1      50.946  20.335  20.285  0.00  0.00    -0.011 C 
ENDBRANCH   5   4
BRANCH  24  25
ATOM     25  O   UNL     1      48.529  16.421  18.672  0.00  0.00    -0.489 OA
ATOM     26  H   UNL     1      48.231  15.869  19.408  0.00  0.00    +0.395 HD
ENDBRANCH  24  25
BRANCH  27  28
ATOM     28  O   UNL     1      50.821  17.583  19.660  0.00  0.00    -0.328 OA
ATOM     29  C   UNL     1      51.687  17.382  18.541  0.00  0.00    +0.231 C 
ENDBRANCH  27  28
ENDBRANCH   8   7
BRANCH  12  13
ATOM     13  O   UNL     1      42.209  23.672  19.538  0.00  0.00    -0.479 OA
ATOM     14  H   UNL     1      42.970  24.047  20.002  0.00  0.00    +0.404 HD
ENDBRANCH  12  13
BRANCH  16  17
ATOM     17  O   UNL     1      40.395  19.573  17.965  0.00  0.00    -0.490 OA
ATOM     18  H   UNL     1      40.623  18.700  17.619  0.00  0.00    +0.403 HD
ENDBRANCH  16  17
TORSDOF 6
ENDMDL
MODEL 5
REMARK VINA RESULT:      -6.2      3.057      4.642
REMARK  Name = ZINC95486076
REMARK  9 active torsions:
REMARK  status: ('A' for Active; 'I' for Inactive)
REMARK    1  A    between atoms: C1_1  and  C2_2
REMARK    2  A    between atoms: C2_2  and  C20_27
REMARK    3  A    between atoms: C3_3  and  C4_4
REMARK    4  A    between atoms: C6_6  and  C11_13
REMARK    5  A    between atoms: C8_8  and  O2_12
REMARK    6  A    between atoms: C9_9  and  O1_10
REMARK    7  A    between atoms: O1_10  and  C10_11
REMARK    8  A    between atoms: C15_19  and  O6_26
REMARK    9  A    between atoms: C17_21  and  O5_25
REMARK                            x       y       z     vdW  Elec       q    Type
REMARK                         _______ _______ _______ _____ _____    ______ ____
ROOT
ATOM      8  C   UNL     1      45.731  18.404  18.336  0.00  0.00    +0.241 C 
ATOM      9  C   UNL     1      46.633  18.972  19.441  0.00  0.00    +0.040 C 
ATOM     10  C   UNL     1      46.344  20.459  19.536  0.00  0.00    +0.404 C 
ATOM     11  C   UNL     1      44.940  20.865  19.413  0.00  0.00    -0.294 A 
ATOM     12  C   UNL     1      44.540  22.171  19.737  0.00  0.00    +0.223 A 
ATOM     15  C   UNL     1      43.211  22.530  19.600  0.00  0.00    -0.074 A 
ATOM     16  C   UNL     1      42.282  21.602  19.146  0.00  0.00    +0.198 A 
ATOM     19  C   UNL     1      42.670  20.307  18.830  0.00  0.00    -0.052 A 
ATOM     20  C   UNL     1      43.995  19.925  18.961  0.00  0.00    +0.214 A 
ATOM     21  O   UNL     1      47.230  21.271  19.706  0.00  0.00    -0.431 OA
ATOM     22  O   UNL     1      44.365  18.659  18.661  0.00  0.00    -0.297 OA
ENDROOT
BRANCH   8   7
ATOM      5  C   UNL     1      45.721  14.702  19.124  0.00  0.00    -0.049 A 
ATOM      6  C   UNL     1      45.518  16.079  19.227  0.00  0.00    +0.045 A 
ATOM      7  C   UNL     1      45.952  16.917  18.221  0.00  0.00    -0.081 A 
ATOM     23  C   UNL     1      46.589  16.400  17.106  0.00  0.00    +0.034 A 
ATOM     24  C   UNL     1      46.797  15.035  16.992  0.00  0.00    +0.093 A 
ATOM     27  C   UNL     1      46.370  14.180  18.000  0.00  0.00    +0.088 A 
BRANCH   5   4
ATOM      1  C   UNL     1      47.199  14.516  21.521  0.00  0.00    +0.079 C 
ATOM      2  C   UNL     1      45.905  13.762  21.355  0.00  0.00    -0.102 C 
ATOM      3  C   UNL     1      45.345  12.963  22.504  0.00  0.00    +0.085 C 
ATOM      4  C   UNL     1      45.257  13.801  20.198  0.00  0.00    -0.011 C 
ENDBRANCH   5   4
BRANCH  24  25
ATOM     25  O   UNL     1      47.422  14.532  15.893  0.00  0.00    -0.489 OA
ATOM     26  H   UNL     1      48.239  14.052  16.090  0.00  0.00    +0.395 HD
ENDBRANCH  24  25
BRANCH  27  28
ATOM     28  O   UNL     1      46.576  12.840  17.893  0.00  0.00    -0.328 OA
ATOM     29  C   UNL     1      45.678  12.109  17.056  0.00  0.00    +0.231 C 
ENDBRANCH  27  28
ENDBRANCH   8   7
BRANCH  12  13
ATOM     13  O   UNL     1      45.449  23.073  20.182  0.00  0.00    -0.479 OA
ATOM     14  H   UNL     1      46.360  22.748  20.176  0.00  0.00    +0.404 HD
ENDBRANCH  12  13
BRANCH  16  17
ATOM     17  O   UNL     1      40.981  21.965  19.012  0.00  0.00    -0.490 OA
ATOM     18  H   UNL     1      40.567  21.648  18.197  0.00  0.00    +0.403 HD
ENDBRANCH  16  17
TORSDOF 6
ENDMDL
MODEL 6
REMARK VINA RESULT:      -6.1      2.140      2.577
REMARK  Name = ZINC95486076
REMARK  9 active torsions:
REMARK  status: ('A' for Active; 'I' for Inactive)
REMARK    1  A    between atoms: C1_1  and  C2_2
REMARK    2  A    between atoms: C2_2  and  C20_27
REMARK    3  A    between atoms: C3_3  and  C4_4
REMARK    4  A    between atoms: C6_6  and  C11_13
REMARK    5  A    between atoms: C8_8  and  O2_12
REMARK    6  A    between atoms: C9_9  and  O1_10
REMARK    7  A    between atoms: O1_10  and  C10_11
REMARK    8  A    between atoms: C15_19  and  O6_26
REMARK    9  A    between atoms: C17_21  and  O5_25
REMARK                            x       y       z     vdW  Elec       q    Type
REMARK                         _______ _______ _______ _____ _____    ______ ____
ROOT
ATOM      8  C   UNL     1      46.395  19.536  19.360  0.00  0.00    +0.241 C 
ATOM      9  C   UNL     1      45.195  18.733  18.837  0.00  0.00    +0.040 C 
ATOM     10  C   UNL     1      43.940  19.440  19.316  0.00  0.00    +0.404 C 
ATOM     11  C   UNL     1      43.955  20.906  19.273  0.00  0.00    -0.294 A 
ATOM     12  C   UNL     1      42.771  21.640  19.448  0.00  0.00    +0.223 A 
ATOM     15  C   UNL     1      42.815  23.022  19.415  0.00  0.00    -0.074 A 
ATOM     16  C   UNL     1      44.024  23.675  19.208  0.00  0.00    +0.198 A 
ATOM     19  C   UNL     1      45.197  22.955  19.028  0.00  0.00    -0.052 A 
ATOM     20  C   UNL     1      45.176  21.571  19.055  0.00  0.00    +0.214 A 
ATOM     21  O   UNL     1      42.973  18.823  19.714  0.00  0.00    -0.431 OA
ATOM     22  O   UNL     1      46.320  20.874  18.868  0.00  0.00    -0.297 OA
ENDROOT
BRANCH   8   7
ATOM      5  C   UNL     1      50.076  18.829  18.833  0.00  0.00    -0.049 A 
ATOM      6  C   UNL     1      48.890  19.419  19.272  0.00  0.00    +0.045 A 
ATOM      7  C   UNL     1      47.674  18.896  18.884  0.00  0.00    -0.081 A 
ATOM     23  C   UNL     1      47.623  17.785  18.059  0.00  0.00    +0.034 A 
ATOM     24  C   UNL     1      48.793  17.190  17.617  0.00  0.00    +0.093 A 
ATOM     27  C   UNL     1      50.025  17.710  17.995  0.00  0.00    +0.088 A 
BRANCH   5   4
ATOM      1  C   UNL     1      51.092  21.117  17.528  0.00  0.00    +0.079 C 
ATOM      2  C   UNL     1      51.830  20.503  18.689  0.00  0.00    -0.102 C 
ATOM      3  C   UNL     1      53.082  21.156  19.217  0.00  0.00    +0.085 C 
ATOM      4  C   UNL     1      51.380  19.387  19.247  0.00  0.00    -0.011 C 
ENDBRANCH   5   4
BRANCH  24  25
ATOM     25  O   UNL     1      48.736  16.097  16.808  0.00  0.00    -0.489 OA
ATOM     26  H   UNL     1      48.990  15.272  17.244  0.00  0.00    +0.395 HD
ENDBRANCH  24  25
BRANCH  27  28
ATOM     28  O   UNL     1      51.175  17.132  17.559  0.00  0.00    -0.328 OA
ATOM     29  C   UNL     1      51.678  17.563  16.293  0.00  0.00    +0.231 C 
ENDBRANCH  27  28
ENDBRANCH   8   7
BRANCH  12  13
ATOM     13  O   UNL     1      41.593  20.999  19.648  0.00  0.00    -0.479 OA
ATOM     14  H   UNL     1      41.040  20.937  18.857  0.00  0.00    +0.404 HD
ENDBRANCH  12  13
BRANCH  16  17
ATOM     17  O   UNL     1      44.059  25.032  19.181  0.00  0.00    -0.490 OA
ATOM     18  H   UNL     1      43.231  25.452  19.451  0.00  0.00    +0.403 HD
ENDBRANCH  16  17
TORSDOF 6
ENDMDL
MODEL 7
REMARK VINA RESULT:      -6.1      2.720      3.838
REMARK  Name = ZINC95486076
REMARK  9 active torsions:
REMARK  status: ('A' for Active; 'I' for Inactive)
REMARK    1  A    between atoms: C1_1  and  C2_2
REMARK    2  A    between atoms: C2_2  and  C20_27
REMARK    3  A    between atoms: C3_3  and  C4_4
REMARK    4  A    between atoms: C6_6  and  C11_13
REMARK    5  A    between atoms: C8_8  and  O2_12
REMARK    6  A    between atoms: C9_9  and  O1_10
REMARK    7  A    between atoms: O1_10  and  C10_11
REMARK    8  A    between atoms: C15_19  and  O6_26
REMARK    9  A    between atoms: C17_21  and  O5_25
REMARK                            x       y       z     vdW  Elec       q    Type
REMARK                         _______ _______ _______ _____ _____    ______ ____
ROOT
ATOM      8  C   UNL     1      46.039  18.817  19.248  0.00  0.00    +0.241 C 
ATOM      9  C   UNL     1      44.999  19.387  18.273  0.00  0.00    +0.040 C 
ATOM     10  C   UNL     1      44.235  20.470  19.014  0.00  0.00    +0.404 C 
ATOM     11  C   UNL     1      45.022  21.346  19.889  0.00  0.00    -0.294 A 
ATOM     12  C   UNL     1      44.463  22.522  20.414  0.00  0.00    +0.223 A 
ATOM     15  C   UNL     1      45.223  23.324  21.247  0.00  0.00    -0.074 A 
ATOM     16  C   UNL     1      46.528  22.965  21.558  0.00  0.00    +0.198 A 
ATOM     19  C   UNL     1      47.088  21.806  21.038  0.00  0.00    -0.052 A 
ATOM     20  C   UNL     1      46.347  20.990  20.201  0.00  0.00    +0.214 A 
ATOM     21  O   UNL     1      43.036  20.605  18.887  0.00  0.00    -0.431 OA
ATOM     22  O   UNL     1      46.901  19.867  19.688  0.00  0.00    -0.297 OA
ENDROOT
BRANCH   8   7
ATOM      5  C   UNL     1      48.915  16.550  18.293  0.00  0.00    -0.049 A 
ATOM      6  C   UNL     1      48.159  17.531  18.936  0.00  0.00    +0.045 A 
ATOM      7  C   UNL     1      46.853  17.757  18.552  0.00  0.00    -0.081 A 
ATOM     23  C   UNL     1      46.287  17.014  17.530  0.00  0.00    +0.034 A 
ATOM     24  C   UNL     1      47.027  16.037  16.884  0.00  0.00    +0.093 A 
ATOM     27  C   UNL     1      48.345  15.803  17.257  0.00  0.00    +0.088 A 
BRANCH   5   4
ATOM      1  C   UNL     1      50.998  18.030  17.095  0.00  0.00    +0.079 C 
ATOM      2  C   UNL     1      51.291  17.045  18.197  0.00  0.00    -0.102 C 
ATOM      3  C   UNL     1      52.695  16.902  18.727  0.00  0.00    +0.085 C 
ATOM      4  C   UNL     1      50.313  16.304  18.702  0.00  0.00    -0.011 C 
ENDBRANCH   5   4
BRANCH  24  25
ATOM     25  O   UNL     1      46.464  15.309  15.883  0.00  0.00    -0.489 OA
ATOM     26  H   UNL     1      46.959  14.510  15.652  0.00  0.00    +0.395 HD
ENDBRANCH  24  25
BRANCH  27  28
ATOM     28  O   UNL     1      49.076  14.848  16.622  0.00  0.00    -0.328 OA
ATOM     29  C   UNL     1      48.947  13.508  17.100  0.00  0.00    +0.231 C 
ENDBRANCH  27  28
ENDBRANCH   8   7
BRANCH  12  13
ATOM     13  O   UNL     1      43.189  22.871  20.105  0.00  0.00    -0.479 OA
ATOM     14  H   UNL     1      42.533  22.198  20.329  0.00  0.00    +0.404 HD
ENDBRANCH  12  13
BRANCH  16  17
ATOM     17  O   UNL     1      47.265  23.756  22.379  0.00  0.00    -0.490 OA
ATOM     18  H   UNL     1      46.862  24.616  22.561  0.00  0.00    +0.403 HD
ENDBRANCH  16  17
TORSDOF 6
ENDMDL
MODEL 8
REMARK VINA RESULT:      -6.1      1.307      2.891
REMARK  Name = ZINC95486076
REMARK  9 active torsions:
REMARK  status: ('A' for Active; 'I' for Inactive)
REMARK    1  A    between atoms: C1_1  and  C2_2
REMARK    2  A    between atoms: C2_2  and  C20_27
REMARK    3  A    between atoms: C3_3  and  C4_4
REMARK    4  A    between atoms: C6_6  and  C11_13
REMARK    5  A    between atoms: C8_8  and  O2_12
REMARK    6  A    between atoms: C9_9  and  O1_10
REMARK    7  A    between atoms: O1_10  and  C10_11
REMARK    8  A    between atoms: C15_19  and  O6_26
REMARK    9  A    between atoms: C17_21  and  O5_25
REMARK                            x       y       z     vdW  Elec       q    Type
REMARK                         _______ _______ _______ _____ _____    ______ ____
ROOT
ATOM      8  C   UNL     1      45.069  19.075  19.858  0.00  0.00    +0.241 C 
ATOM      9  C   UNL     1      44.418  17.805  20.424  0.00  0.00    +0.040 C 
ATOM     10  C   UNL     1      43.092  18.216  21.039  0.00  0.00    +0.404 C 
ATOM     11  C   UNL     1      42.308  19.213  20.302  0.00  0.00    -0.294 A 
ATOM     12  C   UNL     1      40.971  19.469  20.645  0.00  0.00    +0.223 A 
ATOM     15  C   UNL     1      40.258  20.423  19.941  0.00  0.00    -0.074 A 
ATOM     16  C   UNL     1      40.864  21.118  18.902  0.00  0.00    +0.198 A 
ATOM     19  C   UNL     1      42.183  20.865  18.554  0.00  0.00    -0.052 A 
ATOM     20  C   UNL     1      42.915  19.914  19.244  0.00  0.00    +0.214 A 
ATOM     21  O   UNL     1      42.701  17.744  22.087  0.00  0.00    -0.431 OA
ATOM     22  O   UNL     1      44.198  19.663  18.893  0.00  0.00    -0.297 OA
ENDROOT
BRANCH   8   7
ATOM      5  C   UNL     1      47.686  17.240  17.831  0.00  0.00    -0.049 A 
ATOM      6  C   UNL     1      46.475  17.573  18.439  0.00  0.00    +0.045 A 
ATOM      7  C   UNL     1      46.379  18.718  19.203  0.00  0.00    -0.081 A 
ATOM     23  C   UNL     1      47.479  19.541  19.369  0.00  0.00    +0.034 A 
ATOM     24  C   UNL     1      48.687  19.222  18.771  0.00  0.00    +0.093 A 
ATOM     27  C   UNL     1      48.800  18.069  18.004  0.00  0.00    +0.088 A 
BRANCH   5   4
ATOM      1  C   UNL     1      48.133  14.755  19.091  0.00  0.00    +0.079 C 
ATOM      2  C   UNL     1      47.930  14.835  17.601  0.00  0.00    -0.102 C 
ATOM      3  C   UNL     1      47.884  13.573  16.778  0.00  0.00    +0.085 C 
ATOM      4  C   UNL     1      47.793  16.016  17.012  0.00  0.00    -0.011 C 
ENDBRANCH   5   4
BRANCH  24  25
ATOM     25  O   UNL     1      49.764  20.036  18.937  0.00  0.00    -0.489 OA
ATOM     26  H   UNL     1      50.393  20.012  18.202  0.00  0.00    +0.395 HD
ENDBRANCH  24  25
BRANCH  27  28
ATOM     28  O   UNL     1      49.985  17.750  17.419  0.00  0.00    -0.328 OA
ATOM     29  C   UNL     1      50.948  17.075  18.231  0.00  0.00    +0.231 C 
ENDBRANCH  27  28
ENDBRANCH   8   7
BRANCH  12  13
ATOM     13  O   UNL     1      40.382  18.786  21.658  0.00  0.00    -0.479 OA
ATOM     14  H   UNL     1      39.779  18.090  21.364  0.00  0.00    +0.404 HD
ENDBRANCH  12  13
BRANCH  16  17
ATOM     17  O   UNL     1      40.157  22.055  18.219  0.00  0.00    -0.490 OA
ATOM     18  H   UNL     1      40.425  22.965  18.408  0.00  0.00    +0.403 HD
ENDBRANCH  16  17
TORSDOF 6
ENDMDL
MODEL 9
REMARK VINA RESULT:      -6.1      2.081      7.937
REMARK  Name = ZINC95486076
REMARK  9 active torsions:
REMARK  status: ('A' for Active; 'I' for Inactive)
REMARK    1  A    between atoms: C1_1  and  C2_2
REMARK    2  A    between atoms: C2_2  and  C20_27
REMARK    3  A    between atoms: C3_3  and  C4_4
REMARK    4  A    between atoms: C6_6  and  C11_13
REMARK    5  A    between atoms: C8_8  and  O2_12
REMARK    6  A    between atoms: C9_9  and  O1_10
REMARK    7  A    between atoms: O1_10  and  C10_11
REMARK    8  A    between atoms: C15_19  and  O6_26
REMARK    9  A    between atoms: C17_21  and  O5_25
REMARK                            x       y       z     vdW  Elec       q    Type
REMARK                         _______ _______ _______ _____ _____    ______ ____
ROOT
ATOM      8  C   UNL     1      47.743  18.547  18.344  0.00  0.00    +0.241 C 
ATOM      9  C   UNL     1      48.321  17.126  18.406  0.00  0.00    +0.040 C 
ATOM     10  C   UNL     1      49.710  17.180  17.795  0.00  0.00    +0.404 C 
ATOM     11  C   UNL     1      50.528  18.351  18.125  0.00  0.00    -0.294 A 
ATOM     12  C   UNL     1      51.899  18.376  17.826  0.00  0.00    +0.223 A 
ATOM     15  C   UNL     1      52.644  19.499  18.137  0.00  0.00    -0.074 A 
ATOM     16  C   UNL     1      52.037  20.591  18.743  0.00  0.00    +0.198 A 
ATOM     19  C   UNL     1      50.683  20.571  19.047  0.00  0.00    -0.052 A 
ATOM     20  C   UNL     1      49.918  19.457  18.746  0.00  0.00    +0.214 A 
ATOM     21  O   UNL     1      50.122  16.297  17.071  0.00  0.00    -0.431 OA
ATOM     22  O   UNL     1      48.600  19.439  19.055  0.00  0.00    -0.297 OA
ENDROOT
BRANCH   8   7
ATOM      5  C   UNL     1      44.246  19.630  19.307  0.00  0.00    -0.049 A 
ATOM      6  C   UNL     1      45.516  19.615  18.728  0.00  0.00    +0.045 A 
ATOM      7  C   UNL     1      46.372  18.560  18.971  0.00  0.00    -0.081 A 
ATOM     23  C   UNL     1      45.977  17.514  19.786  0.00  0.00    +0.034 A 
ATOM     24  C   UNL     1      44.719  17.517  20.366  0.00  0.00    +0.093 A 
ATOM     27  C   UNL     1      43.850  18.575  20.135  0.00  0.00    +0.088 A 
BRANCH   5   4
ATOM      1  C   UNL     1      44.570  22.046  20.731  0.00  0.00    +0.079 C 
ATOM      2  C   UNL     1      43.517  21.919  19.661  0.00  0.00    -0.102 C 
ATOM      3  C   UNL     1      42.678  23.114  19.284  0.00  0.00    +0.085 C 
ATOM      4  C   UNL     1      43.327  20.757  19.050  0.00  0.00    -0.011 C 
ENDBRANCH   5   4
BRANCH  24  25
ATOM     25  O   UNL     1      44.337  16.484  21.165  0.00  0.00    -0.489 OA
ATOM     26  H   UNL     1      45.019  16.196  21.788  0.00  0.00    +0.395 HD
ENDBRANCH  24  25
BRANCH  27  28
ATOM     28  O   UNL     1      42.616  18.584  20.707  0.00  0.00    -0.328 OA
ATOM     29  C   UNL     1      42.531  19.038  22.060  0.00  0.00    +0.231 C 
ENDBRANCH  27  28
ENDBRANCH   8   7
BRANCH  12  13
ATOM     13  O   UNL     1      52.488  17.306  17.237  0.00  0.00    -0.479 OA
ATOM     14  H   UNL     1      52.479  16.504  17.778  0.00  0.00    +0.404 HD
ENDBRANCH  12  13
BRANCH  16  17
ATOM     17  O   UNL     1      52.776  21.690  19.041  0.00  0.00    -0.490 OA
ATOM     18  H   UNL     1      53.528  21.831  18.450  0.00  0.00    +0.403 HD
ENDBRANCH  16  17
TORSDOF 6
ENDMDL
