MODEL 1
REMARK VINA RESULT:      -6.7      0.000      0.000
REMARK  Name = ZINC14559514
REMARK  12 active torsions:
REMARK  status: ('A' for Active; 'I' for Inactive)
REMARK    1  A    between atoms: C1_1  and  C2_2
REMARK    2  A    between atoms: C2_2  and  C26_34
REMARK    3  A    between atoms: C3_3  and  C4_4
REMARK    4  A    between atoms: C4_4  and  C5_5
REMARK    5  A    between atoms: C5_5  and  C6_6
REMARK    6  A    between atoms: C6_6  and  C25_33
REMARK    7  A    between atoms: C14_14  and  O1_15
REMARK    8  A    between atoms: C16_18  and  C18_22
REMARK    9  A    between atoms: C21_25  and  O6_30
REMARK   10  A    between atoms: C22_26  and  O5_29
REMARK   11  A    between atoms: C23_27  and  O4_28
REMARK   12  A    between atoms: O6_30  and  C24_31
REMARK                            x       y       z     vdW  Elec       q    Type
REMARK                         _______ _______ _______ _____ _____    ______ ____
ROOT
ATOM      7  C   UNL     1      46.881  13.513  18.198  0.00  0.00    +0.153 C 
ATOM      8  C   UNL     1      46.622  12.048  17.840  0.00  0.00    +0.086 C 
ATOM      9  C   UNL     1      47.266  14.268  16.954  0.00  0.00    -0.057 C 
ATOM     10  C   UNL     1      46.993  15.566  16.850  0.00  0.00    +0.059 C 
ATOM     11  C   UNL     1      46.281  16.224  17.964  0.00  0.00    -0.210 A 
ATOM     12  C   UNL     1      45.654  15.417  18.928  0.00  0.00    +0.226 A 
ATOM     13  C   UNL     1      44.983  15.993  19.993  0.00  0.00    -0.051 A 
ATOM     14  C   UNL     1      44.908  17.371  20.110  0.00  0.00    +0.237 A 
ATOM     15  C   UNL     1      45.525  18.187  19.143  0.00  0.00    -0.314 A 
ATOM     16  C   UNL     1      45.446  19.641  19.284  0.00  0.00    +0.414 C 
ATOM     17  C   UNL     1      44.546  20.217  20.346  0.00  0.00    +0.012 C 
ATOM     30  C   UNL     1      44.444  19.261  21.525  0.00  0.00    +0.283 C 
ATOM     31  O   UNL     1      46.094  20.369  18.561  0.00  0.00    -0.433 OA
ATOM     32  O   UNL     1      44.236  17.921  21.141  0.00  0.00    -0.295 OA
ATOM     33  C   UNL     1      46.211  17.611  18.062  0.00  0.00    +0.256 A 
ATOM     36  O   UNL     1      45.703  14.068  18.782  0.00  0.00    -0.292 OA
ENDROOT
BRANCH  17  18
ATOM     18  C   UNL     1      43.174  20.443  19.768  0.00  0.00    -0.137 A 
ATOM     19  C   UNL     1      42.225  19.439  19.829  0.00  0.00    +0.079 A 
ATOM     20  C   UNL     1      40.964  19.640  19.298  0.00  0.00    -0.059 A 
ATOM     21  C   UNL     1      40.646  20.852  18.704  0.00  0.00    +0.128 A 
ATOM     24  C   UNL     1      41.595  21.864  18.641  0.00  0.00    +0.049 A 
ATOM     27  C   UNL     1      42.863  21.656  19.175  0.00  0.00    +0.139 A 
BRANCH  21  22
ATOM     22  O   UNL     1      39.406  21.049  18.182  0.00  0.00    -0.303 OA
ATOM     23  C   UNL     1      38.453  21.722  19.007  0.00  0.00    +0.246 C 
ENDBRANCH  21  22
BRANCH  24  25
ATOM     25  O   UNL     1      41.288  23.055  18.059  0.00  0.00    -0.472 OA
ATOM     26  H   UNL     1      42.040  23.655  17.970  0.00  0.00    +0.385 HD
ENDBRANCH  24  25
BRANCH  27  28
ATOM     28  O   UNL     1      43.796  22.644  19.117  0.00  0.00    -0.480 OA
ATOM     29  H   UNL     1      44.359  22.606  18.330  0.00  0.00    +0.395 HD
ENDBRANCH  27  28
ENDBRANCH  17  18
BRANCH  33  34
ATOM     34  O   UNL     1      46.799  18.395  17.126  0.00  0.00    -0.474 OA
ATOM     35  H   UNL     1      47.283  17.902  16.448  0.00  0.00    +0.403 HD
ENDBRANCH  33  34
BRANCH   7   6
ATOM      6  C   UNL     1      48.027  13.588  19.208  0.00  0.00    +0.020 C 
BRANCH   6   5
ATOM      5  C   UNL     1      49.342  13.223  18.517  0.00  0.00    +0.060 C 
BRANCH   5   4
ATOM      1  C   UNL     1      50.909  14.028  16.315  0.00  0.00    +0.073 C 
ATOM      2  C   UNL     1      50.997  14.777  17.619  0.00  0.00    -0.131 C 
ATOM      3  C   UNL     1      51.866  16.003  17.726  0.00  0.00    +0.071 C 
ATOM      4  C   UNL     1      50.318  14.362  18.660  0.00  0.00    -0.062 C 
ENDBRANCH   5   4
ENDBRANCH   6   5
ENDBRANCH   7   6
TORSDOF 8
ENDMDL
MODEL 2
REMARK VINA RESULT:      -6.5      2.328      4.077
REMARK  Name = ZINC14559514
REMARK  12 active torsions:
REMARK  status: ('A' for Active; 'I' for Inactive)
REMARK    1  A    between atoms: C1_1  and  C2_2
REMARK    2  A    between atoms: C2_2  and  C26_34
REMARK    3  A    between atoms: C3_3  and  C4_4
REMARK    4  A    between atoms: C4_4  and  C5_5
REMARK    5  A    between atoms: C5_5  and  C6_6
REMARK    6  A    between atoms: C6_6  and  C25_33
REMARK    7  A    between atoms: C14_14  and  O1_15
REMARK    8  A    between atoms: C16_18  and  C18_22
REMARK    9  A    between atoms: C21_25  and  O6_30
REMARK   10  A    between atoms: C22_26  and  O5_29
REMARK   11  A    between atoms: C23_27  and  O4_28
REMARK   12  A    between atoms: O6_30  and  C24_31
REMARK                            x       y       z     vdW  Elec       q    Type
REMARK                         _______ _______ _______ _____ _____    ______ ____
ROOT
ATOM      7  C   UNL     1      51.219  18.501  17.221  0.00  0.00    +0.153 C 
ATOM      8  C   UNL     1      51.879  18.321  15.852  0.00  0.00    +0.086 C 
ATOM      9  C   UNL     1      51.252  19.957  17.600  0.00  0.00    -0.057 C 
ATOM     10  C   UNL     1      50.307  20.464  18.389  0.00  0.00    +0.059 C 
ATOM     11  C   UNL     1      49.223  19.571  18.845  0.00  0.00    -0.210 A 
ATOM     12  C   UNL     1      49.055  18.336  18.196  0.00  0.00    +0.226 A 
ATOM     13  C   UNL     1      48.056  17.465  18.598  0.00  0.00    -0.051 A 
ATOM     14  C   UNL     1      47.201  17.810  19.632  0.00  0.00    +0.237 A 
ATOM     15  C   UNL     1      47.357  19.051  20.281  0.00  0.00    -0.314 A 
ATOM     16  C   UNL     1      46.453  19.398  21.377  0.00  0.00    +0.414 C 
ATOM     17  C   UNL     1      45.268  18.508  21.648  0.00  0.00    +0.012 C 
ATOM     30  C   UNL     1      45.587  17.072  21.257  0.00  0.00    +0.283 C 
ATOM     31  O   UNL     1      46.655  20.383  22.057  0.00  0.00    -0.433 OA
ATOM     32  O   UNL     1      46.221  16.963  20.003  0.00  0.00    -0.295 OA
ATOM     33  C   UNL     1      48.369  19.937  19.882  0.00  0.00    +0.256 A 
ATOM     36  O   UNL     1      49.875  18.025  17.160  0.00  0.00    -0.292 OA
ENDROOT
BRANCH  17  18
ATOM     18  C   UNL     1      44.088  18.991  20.846  0.00  0.00    -0.137 A 
ATOM     19  C   UNL     1      44.290  19.635  19.639  0.00  0.00    +0.079 A 
ATOM     20  C   UNL     1      43.211  20.082  18.899  0.00  0.00    -0.059 A 
ATOM     21  C   UNL     1      41.919  19.885  19.366  0.00  0.00    +0.128 A 
ATOM     24  C   UNL     1      41.712  19.238  20.578  0.00  0.00    +0.049 A 
ATOM     27  C   UNL     1      42.801  18.791  21.319  0.00  0.00    +0.139 A 
BRANCH  21  22
ATOM     22  O   UNL     1      40.859  20.325  18.638  0.00  0.00    -0.303 OA
ATOM     23  C   UNL     1      40.710  21.740  18.498  0.00  0.00    +0.246 C 
ENDBRANCH  21  22
BRANCH  24  25
ATOM     25  O   UNL     1      40.446  19.043  21.040  0.00  0.00    -0.472 OA
ATOM     26  H   UNL     1      40.268  19.467  21.891  0.00  0.00    +0.385 HD
ENDBRANCH  24  25
BRANCH  27  28
ATOM     28  O   UNL     1      42.602  18.158  22.505  0.00  0.00    -0.480 OA
ATOM     29  H   UNL     1      41.675  18.125  22.783  0.00  0.00    +0.395 HD
ENDBRANCH  27  28
ENDBRANCH  17  18
BRANCH  33  34
ATOM     34  O   UNL     1      48.516  21.135  20.499  0.00  0.00    -0.474 OA
ATOM     35  H   UNL     1      48.369  21.105  21.455  0.00  0.00    +0.403 HD
ENDBRANCH  33  34
BRANCH   7   6
ATOM      6  C   UNL     1      51.993  17.691  18.262  0.00  0.00    +0.020 C 
BRANCH   6   5
ATOM      5  C   UNL     1      52.104  16.237  17.800  0.00  0.00    +0.060 C 
BRANCH   5   4
ATOM      1  C   UNL     1      50.038  14.601  16.796  0.00  0.00    +0.073 C 
ATOM      2  C   UNL     1      50.405  14.545  18.256  0.00  0.00    -0.131 C 
ATOM      3  C   UNL     1      49.719  13.559  19.167  0.00  0.00    +0.071 C 
ATOM      4  C   UNL     1      51.319  15.352  18.733  0.00  0.00    -0.062 C 
ENDBRANCH   5   4
ENDBRANCH   6   5
ENDBRANCH   7   6
TORSDOF 8
ENDMDL
MODEL 3
REMARK VINA RESULT:      -6.3      2.816      8.365
REMARK  Name = ZINC14559514
REMARK  12 active torsions:
REMARK  status: ('A' for Active; 'I' for Inactive)
REMARK    1  A    between atoms: C1_1  and  C2_2
REMARK    2  A    between atoms: C2_2  and  C26_34
REMARK    3  A    between atoms: C3_3  and  C4_4
REMARK    4  A    between atoms: C4_4  and  C5_5
REMARK    5  A    between atoms: C5_5  and  C6_6
REMARK    6  A    between atoms: C6_6  and  C25_33
REMARK    7  A    between atoms: C14_14  and  O1_15
REMARK    8  A    between atoms: C16_18  and  C18_22
REMARK    9  A    between atoms: C21_25  and  O6_30
REMARK   10  A    between atoms: C22_26  and  O5_29
REMARK   11  A    between atoms: C23_27  and  O4_28
REMARK   12  A    between atoms: O6_30  and  C24_31
REMARK                            x       y       z     vdW  Elec       q    Type
REMARK                         _______ _______ _______ _____ _____    ______ ____
ROOT
ATOM      7  C   UNL     1      43.602  18.251  21.587  0.00  0.00    +0.153 C 
ATOM      8  C   UNL     1      42.350  19.127  21.524  0.00  0.00    +0.086 C 
ATOM      9  C   UNL     1      43.331  17.060  22.467  0.00  0.00    -0.057 C 
ATOM     10  C   UNL     1      43.972  15.913  22.254  0.00  0.00    +0.059 C 
ATOM     11  C   UNL     1      44.918  15.838  21.123  0.00  0.00    -0.210 A 
ATOM     12  C   UNL     1      44.877  16.849  20.148  0.00  0.00    +0.226 A 
ATOM     13  C   UNL     1      45.753  16.823  19.076  0.00  0.00    -0.051 A 
ATOM     14  C   UNL     1      46.667  15.790  18.944  0.00  0.00    +0.237 A 
ATOM     15  C   UNL     1      46.708  14.768  19.913  0.00  0.00    -0.314 A 
ATOM     16  C   UNL     1      47.685  13.689  19.766  0.00  0.00    +0.414 C 
ATOM     17  C   UNL     1      48.480  13.601  18.489  0.00  0.00    +0.012 C 
ATOM     30  C   UNL     1      48.678  14.987  17.895  0.00  0.00    +0.283 C 
ATOM     31  O   UNL     1      47.853  12.882  20.656  0.00  0.00    -0.433 OA
ATOM     32  O   UNL     1      47.503  15.764  17.887  0.00  0.00    -0.295 OA
ATOM     33  C   UNL     1      45.826  14.791  21.004  0.00  0.00    +0.256 A 
ATOM     36  O   UNL     1      43.952  17.836  20.268  0.00  0.00    -0.292 OA
ENDROOT
BRANCH  17  18
ATOM     18  C   UNL     1      47.741  12.737  17.501  0.00  0.00    -0.137 A 
ATOM     19  C   UNL     1      46.380  12.534  17.642  0.00  0.00    +0.079 A 
ATOM     20  C   UNL     1      45.697  11.741  16.739  0.00  0.00    -0.059 A 
ATOM     21  C   UNL     1      46.375  11.146  15.686  0.00  0.00    +0.128 A 
ATOM     24  C   UNL     1      47.742  11.347  15.539  0.00  0.00    +0.049 A 
ATOM     27  C   UNL     1      48.425  12.145  16.451  0.00  0.00    +0.139 A 
BRANCH  21  22
ATOM     22  O   UNL     1      45.703  10.366  14.798  0.00  0.00    -0.303 OA
ATOM     23  C   UNL     1      44.285  10.278  14.954  0.00  0.00    +0.246 C 
ENDBRANCH  21  22
BRANCH  24  25
ATOM     25  O   UNL     1      48.411  10.764  14.507  0.00  0.00    -0.472 OA
ATOM     26  H   UNL     1      49.373  10.769  14.609  0.00  0.00    +0.385 HD
ENDBRANCH  24  25
BRANCH  27  28
ATOM     28  O   UNL     1      49.763  12.345  16.312  0.00  0.00    -0.480 OA
ATOM     29  H   UNL     1      49.991  13.053  15.693  0.00  0.00    +0.395 HD
ENDBRANCH  27  28
ENDBRANCH  17  18
BRANCH  33  34
ATOM     34  O   UNL     1      45.858  13.803  21.933  0.00  0.00    -0.474 OA
ATOM     35  H   UNL     1      46.556  13.150  21.787  0.00  0.00    +0.403 HD
ENDBRANCH  33  34
BRANCH   7   6
ATOM      6  C   UNL     1      44.754  19.064  22.181  0.00  0.00    +0.020 C 
BRANCH   6   5
ATOM      5  C   UNL     1      45.010  20.297  21.313  0.00  0.00    +0.060 C 
BRANCH   5   4
ATOM      1  C   UNL     1      45.679  20.520  18.582  0.00  0.00    +0.073 C 
ATOM      2  C   UNL     1      46.765  20.491  19.627  0.00  0.00    -0.131 C 
ATOM      3  C   UNL     1      48.206  20.656  19.219  0.00  0.00    +0.071 C 
ATOM      4  C   UNL     1      46.456  20.322  20.888  0.00  0.00    -0.062 C 
ENDBRANCH   5   4
ENDBRANCH   6   5
ENDBRANCH   7   6
TORSDOF 8
ENDMDL
MODEL 4
REMARK VINA RESULT:      -6.1      2.260      9.314
REMARK  Name = ZINC14559514
REMARK  12 active torsions:
REMARK  status: ('A' for Active; 'I' for Inactive)
REMARK    1  A    between atoms: C1_1  and  C2_2
REMARK    2  A    between atoms: C2_2  and  C26_34
REMARK    3  A    between atoms: C3_3  and  C4_4
REMARK    4  A    between atoms: C4_4  and  C5_5
REMARK    5  A    between atoms: C5_5  and  C6_6
REMARK    6  A    between atoms: C6_6  and  C25_33
REMARK    7  A    between atoms: C14_14  and  O1_15
REMARK    8  A    between atoms: C16_18  and  C18_22
REMARK    9  A    between atoms: C21_25  and  O6_30
REMARK   10  A    between atoms: C22_26  and  O5_29
REMARK   11  A    between atoms: C23_27  and  O4_28
REMARK   12  A    between atoms: O6_30  and  C24_31
REMARK                            x       y       z     vdW  Elec       q    Type
REMARK                         _______ _______ _______ _____ _____    ______ ____
ROOT
ATOM      7  C   UNL     1      44.435  19.574  20.414  0.00  0.00    +0.153 C 
ATOM      8  C   UNL     1      44.422  20.664  21.487  0.00  0.00    +0.086 C 
ATOM      9  C   UNL     1      45.104  20.105  19.174  0.00  0.00    -0.057 C 
ATOM     10  C   UNL     1      45.744  19.276  18.353  0.00  0.00    +0.059 C 
ATOM     11  C   UNL     1      45.805  17.844  18.710  0.00  0.00    -0.210 A 
ATOM     12  C   UNL     1      45.469  17.466  20.021  0.00  0.00    +0.226 A 
ATOM     13  C   UNL     1      45.503  16.134  20.395  0.00  0.00    -0.051 A 
ATOM     14  C   UNL     1      45.886  15.161  19.485  0.00  0.00    +0.237 A 
ATOM     15  C   UNL     1      46.233  15.533  18.172  0.00  0.00    -0.314 A 
ATOM     16  C   UNL     1      46.626  14.495  17.220  0.00  0.00    +0.414 C 
ATOM     17  C   UNL     1      46.834  13.090  17.725  0.00  0.00    +0.012 C 
ATOM     30  C   UNL     1      45.934  12.822  18.922  0.00  0.00    +0.283 C 
ATOM     31  O   UNL     1      46.780  14.758  16.046  0.00  0.00    -0.433 OA
ATOM     32  O   UNL     1      45.934  13.869  19.866  0.00  0.00    -0.295 OA
ATOM     33  C   UNL     1      46.197  16.881  17.785  0.00  0.00    +0.256 A 
ATOM     36  O   UNL     1      45.131  18.432  20.913  0.00  0.00    -0.292 OA
ENDROOT
BRANCH  17  18
ATOM     18  C   UNL     1      48.273  12.916  18.136  0.00  0.00    -0.137 A 
ATOM     19  C   UNL     1      48.619  12.951  19.474  0.00  0.00    +0.079 A 
ATOM     20  C   UNL     1      49.938  12.793  19.857  0.00  0.00    -0.059 A 
ATOM     21  C   UNL     1      50.921  12.598  18.897  0.00  0.00    +0.128 A 
ATOM     24  C   UNL     1      50.578  12.562  17.551  0.00  0.00    +0.049 A 
ATOM     27  C   UNL     1      49.250  12.723  17.172  0.00  0.00    +0.139 A 
BRANCH  21  22
ATOM     22  O   UNL     1      52.218  12.444  19.274  0.00  0.00    -0.303 OA
ATOM     23  C   UNL     1      52.939  13.627  19.622  0.00  0.00    +0.246 C 
ENDBRANCH  21  22
BRANCH  24  25
ATOM     25  O   UNL     1      51.539  12.372  16.607  0.00  0.00    -0.472 OA
ATOM     26  H   UNL     1      52.428  12.624  16.893  0.00  0.00    +0.385 HD
ENDBRANCH  24  25
BRANCH  27  28
ATOM     28  O   UNL     1      48.909  12.688  15.855  0.00  0.00    -0.480 OA
ATOM     29  H   UNL     1      48.148  13.241  15.632  0.00  0.00    +0.395 HD
ENDBRANCH  27  28
ENDBRANCH  17  18
BRANCH  33  34
ATOM     34  O   UNL     1      46.539  17.242  16.524  0.00  0.00    -0.474 OA
ATOM     35  H   UNL     1      46.226  18.121  16.268  0.00  0.00    +0.403 HD
ENDBRANCH  33  34
BRANCH   7   6
ATOM      6  C   UNL     1      42.996  19.180  20.080  0.00  0.00    +0.020 C 
BRANCH   6   5
ATOM      5  C   UNL     1      42.587  19.817  18.750  0.00  0.00    +0.060 C 
BRANCH   5   4
ATOM      1  C   UNL     1      41.561  22.444  18.714  0.00  0.00    +0.073 C 
ATOM      2  C   UNL     1      40.625  21.265  18.657  0.00  0.00    -0.131 C 
ATOM      3  C   UNL     1      39.142  21.489  18.505  0.00  0.00    +0.071 C 
ATOM      4  C   UNL     1      41.098  20.047  18.740  0.00  0.00    -0.062 C 
ENDBRANCH   5   4
ENDBRANCH   6   5
ENDBRANCH   7   6
TORSDOF 8
ENDMDL
MODEL 5
REMARK VINA RESULT:      -6.0      1.932      3.029
REMARK  Name = ZINC14559514
REMARK  12 active torsions:
REMARK  status: ('A' for Active; 'I' for Inactive)
REMARK    1  A    between atoms: C1_1  and  C2_2
REMARK    2  A    between atoms: C2_2  and  C26_34
REMARK    3  A    between atoms: C3_3  and  C4_4
REMARK    4  A    between atoms: C4_4  and  C5_5
REMARK    5  A    between atoms: C5_5  and  C6_6
REMARK    6  A    between atoms: C6_6  and  C25_33
REMARK    7  A    between atoms: C14_14  and  O1_15
REMARK    8  A    between atoms: C16_18  and  C18_22
REMARK    9  A    between atoms: C21_25  and  O6_30
REMARK   10  A    between atoms: C22_26  and  O5_29
REMARK   11  A    between atoms: C23_27  and  O4_28
REMARK   12  A    between atoms: O6_30  and  C24_31
REMARK                            x       y       z     vdW  Elec       q    Type
REMARK                         _______ _______ _______ _____ _____    ______ ____
ROOT
ATOM      7  C   UNL     1      49.982  16.002  17.892  0.00  0.00    +0.153 C 
ATOM      8  C   UNL     1      50.205  14.856  16.902  0.00  0.00    +0.086 C 
ATOM      9  C   UNL     1      50.488  17.285  17.290  0.00  0.00    -0.057 C 
ATOM     10  C   UNL     1      49.939  18.447  17.634  0.00  0.00    +0.059 C 
ATOM     11  C   UNL     1      48.811  18.434  18.586  0.00  0.00    -0.210 A 
ATOM     12  C   UNL     1      48.168  17.211  18.846  0.00  0.00    +0.226 A 
ATOM     13  C   UNL     1      47.112  17.152  19.740  0.00  0.00    -0.051 A 
ATOM     14  C   UNL     1      46.666  18.301  20.373  0.00  0.00    +0.237 A 
ATOM     15  C   UNL     1      47.299  19.532  20.110  0.00  0.00    -0.314 A 
ATOM     16  C   UNL     1      46.823  20.735  20.793  0.00  0.00    +0.414 C 
ATOM     17  C   UNL     1      45.555  20.655  21.602  0.00  0.00    +0.012 C 
ATOM     30  C   UNL     1      45.379  19.254  22.169  0.00  0.00    +0.283 C 
ATOM     31  O   UNL     1      47.439  21.777  20.710  0.00  0.00    -0.433 OA
ATOM     32  O   UNL     1      45.625  18.235  21.227  0.00  0.00    -0.295 OA
ATOM     33  C   UNL     1      48.372  19.598  19.209  0.00  0.00    +0.256 A 
ATOM     36  O   UNL     1      48.591  16.099  18.192  0.00  0.00    -0.292 OA
ENDROOT
BRANCH  17  18
ATOM     18  C   UNL     1      44.379  20.986  20.721  0.00  0.00    -0.137 A 
ATOM     19  C   UNL     1      43.499  19.990  20.340  0.00  0.00    +0.079 A 
ATOM     20  C   UNL     1      42.419  20.288  19.530  0.00  0.00    -0.059 A 
ATOM     21  C   UNL     1      42.214  21.590  19.097  0.00  0.00    +0.128 A 
ATOM     24  C   UNL     1      43.095  22.594  19.477  0.00  0.00    +0.049 A 
ATOM     27  C   UNL     1      44.181  22.289  20.292  0.00  0.00    +0.139 A 
BRANCH  21  22
ATOM     22  O   UNL     1      41.152  21.882  18.300  0.00  0.00    -0.303 OA
ATOM     23  C   UNL     1      39.870  21.423  18.732  0.00  0.00    +0.246 C 
ENDBRANCH  21  22
BRANCH  24  25
ATOM     25  O   UNL     1      42.898  23.872  19.055  0.00  0.00    -0.472 OA
ATOM     26  H   UNL     1      42.547  23.940  18.156  0.00  0.00    +0.385 HD
ENDBRANCH  24  25
BRANCH  27  28
ATOM     28  O   UNL     1      45.046  23.268  20.667  0.00  0.00    -0.480 OA
ATOM     29  H   UNL     1      44.952  24.089  20.164  0.00  0.00    +0.395 HD
ENDBRANCH  27  28
ENDBRANCH  17  18
BRANCH  33  34
ATOM     34  O   UNL     1      48.977  20.784  18.948  0.00  0.00    -0.474 OA
ATOM     35  H   UNL     1      48.489  21.553  19.274  0.00  0.00    +0.403 HD
ENDBRANCH  33  34
BRANCH   7   6
ATOM      6  C   UNL     1      50.755  15.710  19.179  0.00  0.00    +0.020 C 
BRANCH   6   5
ATOM      5  C   UNL     1      50.463  14.280  19.639  0.00  0.00    +0.060 C 
BRANCH   5   4
ATOM      1  C   UNL     1      47.960  12.985  19.560  0.00  0.00    +0.073 C 
ATOM      2  C   UNL     1      48.424  13.656  20.826  0.00  0.00    -0.131 C 
ATOM      3  C   UNL     1      47.584  13.573  22.075  0.00  0.00    +0.071 C 
ATOM      4  C   UNL     1      49.557  14.313  20.842  0.00  0.00    -0.062 C 
ENDBRANCH   5   4
ENDBRANCH   6   5
ENDBRANCH   7   6
TORSDOF 8
ENDMDL
MODEL 6
REMARK VINA RESULT:      -6.0      1.719      2.264
REMARK  Name = ZINC14559514
REMARK  12 active torsions:
REMARK  status: ('A' for Active; 'I' for Inactive)
REMARK    1  A    between atoms: C1_1  and  C2_2
REMARK    2  A    between atoms: C2_2  and  C26_34
REMARK    3  A    between atoms: C3_3  and  C4_4
REMARK    4  A    between atoms: C4_4  and  C5_5
REMARK    5  A    between atoms: C5_5  and  C6_6
REMARK    6  A    between atoms: C6_6  and  C25_33
REMARK    7  A    between atoms: C14_14  and  O1_15
REMARK    8  A    between atoms: C16_18  and  C18_22
REMARK    9  A    between atoms: C21_25  and  O6_30
REMARK   10  A    between atoms: C22_26  and  O5_29
REMARK   11  A    between atoms: C23_27  and  O4_28
REMARK   12  A    between atoms: O6_30  and  C24_31
REMARK                            x       y       z     vdW  Elec       q    Type
REMARK                         _______ _______ _______ _____ _____    ______ ____
ROOT
ATOM      7  C   UNL     1      49.083  15.335  17.892  0.00  0.00    +0.153 C 
ATOM      8  C   UNL     1      49.360  14.170  16.939  0.00  0.00    +0.086 C 
ATOM      9  C   UNL     1      49.570  16.615  17.267  0.00  0.00    -0.057 C 
ATOM     10  C   UNL     1      48.982  17.771  17.567  0.00  0.00    +0.059 C 
ATOM     11  C   UNL     1      47.832  17.752  18.493  0.00  0.00    -0.210 A 
ATOM     12  C   UNL     1      47.215  16.520  18.771  0.00  0.00    +0.226 A 
ATOM     13  C   UNL     1      46.140  16.456  19.640  0.00  0.00    -0.051 A 
ATOM     14  C   UNL     1      45.649  17.609  20.231  0.00  0.00    +0.237 A 
ATOM     15  C   UNL     1      46.255  18.849  19.950  0.00  0.00    -0.314 A 
ATOM     16  C   UNL     1      45.732  20.056  20.589  0.00  0.00    +0.414 C 
ATOM     17  C   UNL     1      44.447  19.964  21.370  0.00  0.00    +0.012 C 
ATOM     30  C   UNL     1      44.295  18.574  21.970  0.00  0.00    +0.283 C 
ATOM     31  O   UNL     1      46.322  21.113  20.492  0.00  0.00    -0.433 OA
ATOM     32  O   UNL     1      44.589  17.538  21.062  0.00  0.00    -0.295 OA
ATOM     33  C   UNL     1      47.348  18.921  19.073  0.00  0.00    +0.256 A 
ATOM     36  O   UNL     1      47.682  15.403  18.157  0.00  0.00    -0.292 OA
ENDROOT
BRANCH  17  18
ATOM     18  C   UNL     1      43.285  20.240  20.453  0.00  0.00    -0.137 A 
ATOM     19  C   UNL     1      42.404  19.225  20.128  0.00  0.00    +0.079 A 
ATOM     20  C   UNL     1      41.336  19.472  19.286  0.00  0.00    -0.059 A 
ATOM     21  C   UNL     1      41.144  20.742  18.763  0.00  0.00    +0.128 A 
ATOM     24  C   UNL     1      42.026  21.766  19.087  0.00  0.00    +0.049 A 
ATOM     27  C   UNL     1      43.099  21.512  19.934  0.00  0.00    +0.139 A 
BRANCH  21  22
ATOM     22  O   UNL     1      40.094  20.984  17.934  0.00  0.00    -0.303 OA
ATOM     23  C   UNL     1      38.888  21.460  18.535  0.00  0.00    +0.246 C 
ENDBRANCH  21  22
BRANCH  24  25
ATOM     25  O   UNL     1      41.841  23.013  18.576  0.00  0.00    -0.472 OA
ATOM     26  H   UNL     1      41.201  23.051  17.851  0.00  0.00    +0.385 HD
ENDBRANCH  24  25
BRANCH  27  28
ATOM     28  O   UNL     1      43.964  22.511  20.254  0.00  0.00    -0.480 OA
ATOM     29  H   UNL     1      44.886  22.317  20.033  0.00  0.00    +0.395 HD
ENDBRANCH  27  28
ENDBRANCH  17  18
BRANCH  33  34
ATOM     34  O   UNL     1      47.927  20.114  18.795  0.00  0.00    -0.474 OA
ATOM     35  H   UNL     1      48.494  20.451  19.503  0.00  0.00    +0.403 HD
ENDBRANCH  33  34
BRANCH   7   6
ATOM      6  C   UNL     1      49.832  15.099  19.205  0.00  0.00    +0.020 C 
BRANCH   6   5
ATOM      5  C   UNL     1      51.250  15.663  19.093  0.00  0.00    +0.060 C 
BRANCH   5   4
ATOM      1  C   UNL     1      52.626  18.087  18.664  0.00  0.00    +0.073 C 
ATOM      2  C   UNL     1      52.093  17.751  20.033  0.00  0.00    -0.131 C 
ATOM      3  C   UNL     1      52.230  18.745  21.158  0.00  0.00    +0.071 C 
ATOM      4  C   UNL     1      51.512  16.597  20.245  0.00  0.00    -0.062 C 
ENDBRANCH   5   4
ENDBRANCH   6   5
ENDBRANCH   7   6
TORSDOF 8
ENDMDL
MODEL 7
REMARK VINA RESULT:      -5.8      4.078      8.941
REMARK  Name = ZINC14559514
REMARK  12 active torsions:
REMARK  status: ('A' for Active; 'I' for Inactive)
REMARK    1  A    between atoms: C1_1  and  C2_2
REMARK    2  A    between atoms: C2_2  and  C26_34
REMARK    3  A    between atoms: C3_3  and  C4_4
REMARK    4  A    between atoms: C4_4  and  C5_5
REMARK    5  A    between atoms: C5_5  and  C6_6
REMARK    6  A    between atoms: C6_6  and  C25_33
REMARK    7  A    between atoms: C14_14  and  O1_15
REMARK    8  A    between atoms: C16_18  and  C18_22
REMARK    9  A    between atoms: C21_25  and  O6_30
REMARK   10  A    between atoms: C22_26  and  O5_29
REMARK   11  A    between atoms: C23_27  and  O4_28
REMARK   12  A    between atoms: O6_30  and  C24_31
REMARK                            x       y       z     vdW  Elec       q    Type
REMARK                         _______ _______ _______ _____ _____    ______ ____
ROOT
ATOM      7  C   UNL     1      51.343  20.379  19.942  0.00  0.00    +0.153 C 
ATOM      8  C   UNL     1      52.501  21.377  19.890  0.00  0.00    +0.086 C 
ATOM      9  C   UNL     1      50.187  20.918  19.141  0.00  0.00    -0.057 C 
ATOM     10  C   UNL     1      49.332  20.082  18.556  0.00  0.00    +0.059 C 
ATOM     11  C   UNL     1      49.571  18.631  18.687  0.00  0.00    -0.210 A 
ATOM     12  C   UNL     1      50.828  18.197  19.144  0.00  0.00    +0.226 A 
ATOM     13  C   UNL     1      51.090  16.846  19.290  0.00  0.00    -0.051 A 
ATOM     14  C   UNL     1      50.123  15.906  18.971  0.00  0.00    +0.237 A 
ATOM     15  C   UNL     1      48.865  16.333  18.504  0.00  0.00    -0.314 A 
ATOM     16  C   UNL     1      47.850  15.330  18.181  0.00  0.00    +0.414 C 
ATOM     17  C   UNL     1      48.246  13.876  18.171  0.00  0.00    +0.012 C 
ATOM     30  C   UNL     1      49.369  13.630  19.167  0.00  0.00    +0.283 C 
ATOM     31  O   UNL     1      46.711  15.662  17.926  0.00  0.00    -0.433 OA
ATOM     32  O   UNL     1      50.396  14.592  19.100  0.00  0.00    -0.295 OA
ATOM     33  C   UNL     1      48.590  17.701  18.357  0.00  0.00    +0.256 A 
ATOM     36  O   UNL     1      51.779  19.126  19.418  0.00  0.00    -0.292 OA
ENDROOT
BRANCH  17  18
ATOM     18  C   UNL     1      48.712  13.496  16.790  0.00  0.00    -0.137 A 
ATOM     19  C   UNL     1      50.065  13.426  16.512  0.00  0.00    +0.079 A 
ATOM     20  C   UNL     1      50.499  13.079  15.247  0.00  0.00    -0.059 A 
ATOM     21  C   UNL     1      49.576  12.797  14.249  0.00  0.00    +0.128 A 
ATOM     24  C   UNL     1      48.216  12.864  14.524  0.00  0.00    +0.049 A 
ATOM     27  C   UNL     1      47.785  13.216  15.799  0.00  0.00    +0.139 A 
BRANCH  21  22
ATOM     22  O   UNL     1      50.004  12.456  13.005  0.00  0.00    -0.303 OA
ATOM     23  C   UNL     1      51.118  13.181  12.479  0.00  0.00    +0.246 C 
ENDBRANCH  21  22
BRANCH  24  25
ATOM     25  O   UNL     1      47.308  12.589  13.549  0.00  0.00    -0.472 OA
ATOM     26  H   UNL     1      46.579  13.222  13.500  0.00  0.00    +0.385 HD
ENDBRANCH  24  25
BRANCH  27  28
ATOM     28  O   UNL     1      46.455  13.283  16.072  0.00  0.00    -0.480 OA
ATOM     29  H   UNL     1      46.229  13.051  16.984  0.00  0.00    +0.395 HD
ENDBRANCH  27  28
ENDBRANCH  17  18
BRANCH  33  34
ATOM     34  O   UNL     1      47.382  18.113  17.900  0.00  0.00    -0.474 OA
ATOM     35  H   UNL     1      47.368  19.032  17.599  0.00  0.00    +0.403 HD
ENDBRANCH  33  34
BRANCH   7   6
ATOM      6  C   UNL     1      50.905  20.192  21.395  0.00  0.00    +0.020 C 
BRANCH   6   5
ATOM      5  C   UNL     1      49.722  21.115  21.696  0.00  0.00    +0.060 C 
BRANCH   5   4
ATOM      1  C   UNL     1      47.066  21.803  21.043  0.00  0.00    +0.073 C 
ATOM      2  C   UNL     1      47.347  20.584  21.882  0.00  0.00    -0.131 C 
ATOM      3  C   UNL     1      46.213  19.688  22.311  0.00  0.00    +0.071 C 
ATOM      4  C   UNL     1      48.575  20.302  22.239  0.00  0.00    -0.062 C 
ENDBRANCH   5   4
ENDBRANCH   6   5
ENDBRANCH   7   6
TORSDOF 8
ENDMDL
MODEL 8
REMARK VINA RESULT:      -5.8      2.726      8.828
REMARK  Name = ZINC14559514
REMARK  12 active torsions:
REMARK  status: ('A' for Active; 'I' for Inactive)
REMARK    1  A    between atoms: C1_1  and  C2_2
REMARK    2  A    between atoms: C2_2  and  C26_34
REMARK    3  A    between atoms: C3_3  and  C4_4
REMARK    4  A    between atoms: C4_4  and  C5_5
REMARK    5  A    between atoms: C5_5  and  C6_6
REMARK    6  A    between atoms: C6_6  and  C25_33
REMARK    7  A    between atoms: C14_14  and  O1_15
REMARK    8  A    between atoms: C16_18  and  C18_22
REMARK    9  A    between atoms: C21_25  and  O6_30
REMARK   10  A    between atoms: C22_26  and  O5_29
REMARK   11  A    between atoms: C23_27  and  O4_28
REMARK   12  A    between atoms: O6_30  and  C24_31
REMARK                            x       y       z     vdW  Elec       q    Type
REMARK                         _______ _______ _______ _____ _____    ______ ____
ROOT
ATOM      7  C   UNL     1      43.615  19.904  19.732  0.00  0.00    +0.153 C 
ATOM      8  C   UNL     1      42.336  20.655  19.357  0.00  0.00    +0.086 C 
ATOM      9  C   UNL     1      43.289  18.853  20.760  0.00  0.00    -0.057 C 
ATOM     10  C   UNL     1      44.018  17.742  20.833  0.00  0.00    +0.059 C 
ATOM     11  C   UNL     1      45.117  17.560  19.864  0.00  0.00    -0.210 A 
ATOM     12  C   UNL     1      45.157  18.392  18.732  0.00  0.00    +0.226 A 
ATOM     13  C   UNL     1      46.176  18.262  17.804  0.00  0.00    -0.051 A 
ATOM     14  C   UNL     1      47.156  17.297  17.972  0.00  0.00    +0.237 A 
ATOM     15  C   UNL     1      47.117  16.453  19.098  0.00  0.00    -0.314 A 
ATOM     16  C   UNL     1      48.164  15.445  19.268  0.00  0.00    +0.414 C 
ATOM     17  C   UNL     1      49.135  15.213  18.139  0.00  0.00    +0.012 C 
ATOM     30  C   UNL     1      49.337  16.496  17.346  0.00  0.00    +0.283 C 
ATOM     31  O   UNL     1      48.250  14.809  20.298  0.00  0.00    -0.433 OA
ATOM     32  O   UNL     1      48.133  17.166  17.052  0.00  0.00    -0.295 OA
ATOM     33  C   UNL     1      46.090  16.582  20.046  0.00  0.00    +0.256 A 
ATOM     36  O   UNL     1      44.170  19.308  18.560  0.00  0.00    -0.292 OA
ENDROOT
BRANCH  17  18
ATOM     18  C   UNL     1      48.593  14.144  17.227  0.00  0.00    -0.137 A 
ATOM     19  C   UNL     1      47.294  13.698  17.381  0.00  0.00    +0.079 A 
ATOM     20  C   UNL     1      46.791  12.716  16.547  0.00  0.00    -0.059 A 
ATOM     21  C   UNL     1      47.591  12.176  15.551  0.00  0.00    +0.128 A 
ATOM     24  C   UNL     1      48.897  12.621  15.391  0.00  0.00    +0.049 A 
ATOM     27  C   UNL     1      49.398  13.608  16.233  0.00  0.00    +0.139 A 
BRANCH  21  22
ATOM     22  O   UNL     1      47.096  11.210  14.732  0.00  0.00    -0.303 OA
ATOM     23  C   UNL     1      45.830  10.647  15.082  0.00  0.00    +0.246 C 
ENDBRANCH  21  22
BRANCH  24  25
ATOM     25  O   UNL     1      49.684  12.093  14.415  0.00  0.00    -0.472 OA
ATOM     26  H   UNL     1      49.546  11.148  14.266  0.00  0.00    +0.385 HD
ENDBRANCH  24  25
BRANCH  27  28
ATOM     28  O   UNL     1      50.676  14.048  16.081  0.00  0.00    -0.480 OA
ATOM     29  H   UNL     1      51.023  13.943  15.184  0.00  0.00    +0.395 HD
ENDBRANCH  27  28
ENDBRANCH  17  18
BRANCH  33  34
ATOM     34  O   UNL     1      46.047  15.765  21.127  0.00  0.00    -0.474 OA
ATOM     35  H   UNL     1      46.908  15.404  21.381  0.00  0.00    +0.403 HD
ENDBRANCH  33  34
BRANCH   7   6
ATOM      6  C   UNL     1      44.623  20.891  20.322  0.00  0.00    +0.020 C 
BRANCH   6   5
ATOM      5  C   UNL     1      44.234  22.317  19.926  0.00  0.00    +0.060 C 
BRANCH   5   4
ATOM      1  C   UNL     1      44.563  24.917  18.884  0.00  0.00    +0.073 C 
ATOM      2  C   UNL     1      45.248  24.524  20.167  0.00  0.00    -0.131 C 
ATOM      3  C   UNL     1      46.050  25.543  20.935  0.00  0.00    +0.071 C 
ATOM      4  C   UNL     1      45.147  23.297  20.615  0.00  0.00    -0.062 C 
ENDBRANCH   5   4
ENDBRANCH   6   5
ENDBRANCH   7   6
TORSDOF 8
ENDMDL
MODEL 9
REMARK VINA RESULT:      -5.6      3.010      9.091
REMARK  Name = ZINC14559514
REMARK  12 active torsions:
REMARK  status: ('A' for Active; 'I' for Inactive)
REMARK    1  A    between atoms: C1_1  and  C2_2
REMARK    2  A    between atoms: C2_2  and  C26_34
REMARK    3  A    between atoms: C3_3  and  C4_4
REMARK    4  A    between atoms: C4_4  and  C5_5
REMARK    5  A    between atoms: C5_5  and  C6_6
REMARK    6  A    between atoms: C6_6  and  C25_33
REMARK    7  A    between atoms: C14_14  and  O1_15
REMARK    8  A    between atoms: C16_18  and  C18_22
REMARK    9  A    between atoms: C21_25  and  O6_30
REMARK   10  A    between atoms: C22_26  and  O5_29
REMARK   11  A    between atoms: C23_27  and  O4_28
REMARK   12  A    between atoms: O6_30  and  C24_31
REMARK                            x       y       z     vdW  Elec       q    Type
REMARK                         _______ _______ _______ _____ _____    ______ ____
ROOT
ATOM      7  C   UNL     1      47.989  19.643  21.183  0.00  0.00    +0.153 C 
ATOM      8  C   UNL     1      48.836  20.524  22.103  0.00  0.00    +0.086 C 
ATOM      9  C   UNL     1      47.805  20.338  19.861  0.00  0.00    -0.057 C 
ATOM     10  C   UNL     1      47.635  19.626  18.750  0.00  0.00    +0.059 C 
ATOM     11  C   UNL     1      47.666  18.153  18.850  0.00  0.00    -0.210 A 
ATOM     12  C   UNL     1      48.173  17.573  20.025  0.00  0.00    +0.226 A 
ATOM     13  C   UNL     1      48.212  16.196  20.164  0.00  0.00    -0.051 A 
ATOM     14  C   UNL     1      47.767  15.376  19.139  0.00  0.00    +0.237 A 
ATOM     15  C   UNL     1      47.266  15.950  17.955  0.00  0.00    -0.314 A 
ATOM     16  C   UNL     1      46.792  15.073  16.886  0.00  0.00    +0.414 C 
ATOM     17  C   UNL     1      47.033  13.590  17.005  0.00  0.00    +0.012 C 
ATOM     30  C   UNL     1      47.058  13.177  18.469  0.00  0.00    +0.283 C 
ATOM     31  O   UNL     1      46.213  15.529  15.921  0.00  0.00    -0.433 OA
ATOM     32  O   UNL     1      47.827  14.036  19.278  0.00  0.00    -0.295 OA
ATOM     33  C   UNL     1      47.220  17.345  17.808  0.00  0.00    +0.256 A 
ATOM     36  O   UNL     1      48.640  18.386  21.007  0.00  0.00    -0.292 OA
ENDROOT
BRANCH  17  18
ATOM     18  C   UNL     1      48.354  13.247  16.368  0.00  0.00    -0.137 A 
ATOM     19  C   UNL     1      49.477  13.073  17.156  0.00  0.00    +0.079 A 
ATOM     20  C   UNL     1      50.692  12.759  16.576  0.00  0.00    -0.059 A 
ATOM     21  C   UNL     1      50.789  12.617  15.200  0.00  0.00    +0.128 A 
ATOM     24  C   UNL     1      49.663  12.790  14.404  0.00  0.00    +0.049 A 
ATOM     27  C   UNL     1      48.443  13.106  14.992  0.00  0.00    +0.139 A 
BRANCH  21  22
ATOM     22  O   UNL     1      51.985  12.309  14.631  0.00  0.00    -0.303 OA
ATOM     23  C   UNL     1      52.588  11.072  15.015  0.00  0.00    +0.246 C 
ENDBRANCH  21  22
BRANCH  24  25
ATOM     25  O   UNL     1      49.754  12.651  13.053  0.00  0.00    -0.472 OA
ATOM     26  H   UNL     1      50.634  12.399  12.742  0.00  0.00    +0.385 HD
ENDBRANCH  24  25
BRANCH  27  28
ATOM     28  O   UNL     1      47.339  13.276  14.217  0.00  0.00    -0.480 OA
ATOM     29  H   UNL     1      47.288  12.668  13.466  0.00  0.00    +0.395 HD
ENDBRANCH  27  28
ENDBRANCH  17  18
BRANCH  33  34
ATOM     34  O   UNL     1      46.746  17.900  16.666  0.00  0.00    -0.474 OA
ATOM     35  H   UNL     1      47.182  17.580  15.863  0.00  0.00    +0.403 HD
ENDBRANCH  33  34
BRANCH   7   6
ATOM      6  C   UNL     1      46.621  19.415  21.827  0.00  0.00    +0.020 C 
BRANCH   6   5
ATOM      5  C   UNL     1      45.759  20.668  21.655  0.00  0.00    +0.060 C 
BRANCH   5   4
ATOM      1  C   UNL     1      44.691  22.264  19.589  0.00  0.00    +0.073 C 
ATOM      2  C   UNL     1      43.988  20.999  20.009  0.00  0.00    -0.131 C 
ATOM      3  C   UNL     1      42.752  20.546  19.274  0.00  0.00    +0.071 C 
ATOM      4  C   UNL     1      44.449  20.294  21.012  0.00  0.00    -0.062 C 
ENDBRANCH   5   4
ENDBRANCH   6   5
ENDBRANCH   7   6
TORSDOF 8
ENDMDL
