MODEL 1
REMARK VINA RESULT:      -5.8      0.000      0.000
REMARK  Name = ZINC01724917
REMARK  0 active torsions:
REMARK  status: ('A' for Active; 'I' for Inactive)
REMARK                            x       y       z     vdW  Elec       q    Type
REMARK                         _______ _______ _______ _____ _____    ______ ____
ROOT
ATOM      1  C   UNL     1      48.154  22.291  22.505  0.00  0.00    +0.022 A 
ATOM      2  C   UNL     1      48.018  20.903  22.506  0.00  0.00    +0.020 A 
ATOM      3  C   UNL     1      46.940  20.304  21.933  0.00  0.00    +0.053 A 
ATOM      4  C   UNL     1      45.940  21.089  21.331  0.00  0.00    +0.117 A 
ATOM      5  C   UNL     1      46.081  22.502  21.332  0.00  0.00    -0.067 A 
ATOM      6  C   UNL     1      45.085  23.293  20.733  0.00  0.00    +0.040 A 
ATOM      7  C   UNL     1      44.000  22.655  20.162  0.00  0.00    +0.095 A 
ATOM      8  C   UNL     1      43.926  21.244  20.197  0.00  0.00    +0.150 A 
ATOM      9  C   UNL     1      42.668  20.883  19.513  0.00  0.00    -0.117 A 
ATOM     10  C   UNL     1      42.049  19.667  19.234  0.00  0.00    +0.096 A 
ATOM     11  C   UNL     1      40.846  19.650  18.561  0.00  0.00    -0.027 A 
ATOM     12  C   UNL     1      40.251  20.838  18.165  0.00  0.00    +0.066 A 
ATOM     13  C   UNL     1      40.855  22.048  18.429  0.00  0.00    -0.025 A 
ATOM     14  C   UNL     1      42.068  22.086  19.112  0.00  0.00    +0.178 A 
ATOM     15  N   UNL     1      42.878  23.136  19.509  0.00  0.00    -0.634 N 
ATOM     16  H   UNL     1      42.742  24.220  19.373  0.00  0.00    +0.447 HD
ATOM     17  N   UNL     1      44.873  20.522  20.766  0.00  0.00    -0.437 NA
ATOM     18  C   UNL     1      47.210  23.086  21.932  0.00  0.00    +0.024 A 
ENDROOT
TORSDOF 0
ENDMDL
MODEL 2
REMARK VINA RESULT:      -5.8     21.396     22.386
REMARK  Name = ZINC01724917
REMARK  0 active torsions:
REMARK  status: ('A' for Active; 'I' for Inactive)
REMARK                            x       y       z     vdW  Elec       q    Type
REMARK                         _______ _______ _______ _____ _____    ______ ____
ROOT
ATOM      1  C   UNL     1      59.338  31.659   3.040  0.00  0.00    +0.022 A 
ATOM      2  C   UNL     1      58.376  31.085   2.209  0.00  0.00    +0.020 A 
ATOM      3  C   UNL     1      57.049  31.241   2.461  0.00  0.00    +0.053 A 
ATOM      4  C   UNL     1      56.632  31.990   3.577  0.00  0.00    +0.117 A 
ATOM      5  C   UNL     1      57.613  32.572   4.421  0.00  0.00    -0.067 A 
ATOM      6  C   UNL     1      57.204  33.320   5.539  0.00  0.00    +0.040 A 
ATOM      7  C   UNL     1      55.848  33.459   5.771  0.00  0.00    +0.095 A 
ATOM      8  C   UNL     1      54.927  32.852   4.888  0.00  0.00    +0.150 A 
ATOM      9  C   UNL     1      53.585  33.184   5.405  0.00  0.00    -0.117 A 
ATOM     10  C   UNL     1      52.294  32.879   4.977  0.00  0.00    +0.096 A 
ATOM     11  C   UNL     1      51.209  33.345   5.687  0.00  0.00    -0.027 A 
ATOM     12  C   UNL     1      51.398  34.115   6.825  0.00  0.00    +0.066 A 
ATOM     13  C   UNL     1      52.668  34.429   7.256  0.00  0.00    -0.025 A 
ATOM     14  C   UNL     1      53.777  33.962   6.556  0.00  0.00    +0.178 A 
ATOM     15  N   UNL     1      55.138  34.117   6.760  0.00  0.00    -0.634 N 
ATOM     16  H   UNL     1      55.673  34.660   7.554  0.00  0.00    +0.447 HD
ATOM     17  N   UNL     1      55.335  32.153   3.845  0.00  0.00    -0.437 NA
ATOM     18  C   UNL     1      58.976  32.390   4.128  0.00  0.00    +0.024 A 
ENDROOT
TORSDOF 0
ENDMDL
MODEL 3
REMARK VINA RESULT:      -5.6      0.830      5.743
REMARK  Name = ZINC01724917
REMARK  0 active torsions:
REMARK  status: ('A' for Active; 'I' for Inactive)
REMARK                            x       y       z     vdW  Elec       q    Type
REMARK                         _______ _______ _______ _____ _____    ______ ____
ROOT
ATOM      1  C   UNL     1      40.094  21.077  18.103  0.00  0.00    +0.022 A 
ATOM      2  C   UNL     1      40.482  19.779  18.436  0.00  0.00    +0.020 A 
ATOM      3  C   UNL     1      41.639  19.545  19.111  0.00  0.00    +0.053 A 
ATOM      4  C   UNL     1      42.464  20.624  19.483  0.00  0.00    +0.117 A 
ATOM      5  C   UNL     1      42.066  21.943  19.142  0.00  0.00    -0.067 A 
ATOM      6  C   UNL     1      42.885  23.025  19.509  0.00  0.00    +0.040 A 
ATOM      7  C   UNL     1      44.055  22.755  20.193  0.00  0.00    +0.095 A 
ATOM      8  C   UNL     1      44.388  21.417  20.499  0.00  0.00    +0.150 A 
ATOM      9  C   UNL     1      45.675  21.469  21.221  0.00  0.00    -0.117 A 
ATOM     10  C   UNL     1      46.501  20.492  21.773  0.00  0.00    +0.096 A 
ATOM     11  C   UNL     1      47.671  20.860  22.402  0.00  0.00    -0.027 A 
ATOM     12  C   UNL     1      48.027  22.197  22.485  0.00  0.00    +0.066 A 
ATOM     13  C   UNL     1      47.218  23.175  21.949  0.00  0.00    -0.025 A 
ATOM     14  C   UNL     1      46.035  22.823  21.305  0.00  0.00    +0.178 A 
ATOM     15  N   UNL     1      45.054  23.578  20.685  0.00  0.00    -0.634 N 
ATOM     16  H   UNL     1      44.985  24.668  20.550  0.00  0.00    +0.447 HD
ATOM     17  N   UNL     1      43.603  20.416  20.144  0.00  0.00    -0.437 NA
ATOM     18  C   UNL     1      40.862  22.146  18.444  0.00  0.00    +0.024 A 
ENDROOT
TORSDOF 0
ENDMDL
MODEL 4
REMARK VINA RESULT:      -5.5      2.365      2.830
REMARK  Name = ZINC01724917
REMARK  0 active torsions:
REMARK  status: ('A' for Active; 'I' for Inactive)
REMARK                            x       y       z     vdW  Elec       q    Type
REMARK                         _______ _______ _______ _____ _____    ______ ____
ROOT
ATOM      1  C   UNL     1      50.045  20.334  19.700  0.00  0.00    +0.022 A 
ATOM      2  C   UNL     1      49.885  19.507  20.812  0.00  0.00    +0.020 A 
ATOM      3  C   UNL     1      48.648  19.132  21.234  0.00  0.00    +0.053 A 
ATOM      4  C   UNL     1      47.506  19.582  20.545  0.00  0.00    +0.117 A 
ATOM      5  C   UNL     1      47.673  20.424  19.414  0.00  0.00    -0.067 A 
ATOM      6  C   UNL     1      46.537  20.878  18.722  0.00  0.00    +0.040 A 
ATOM      7  C   UNL     1      45.293  20.481  19.175  0.00  0.00    +0.095 A 
ATOM      8  C   UNL     1      45.203  19.641  20.308  0.00  0.00    +0.150 A 
ATOM      9  C   UNL     1      43.762  19.406  20.529  0.00  0.00    -0.117 A 
ATOM     10  C   UNL     1      43.049  18.673  21.475  0.00  0.00    +0.096 A 
ATOM     11  C   UNL     1      41.672  18.642  21.422  0.00  0.00    -0.027 A 
ATOM     12  C   UNL     1      40.997  19.339  20.432  0.00  0.00    +0.066 A 
ATOM     13  C   UNL     1      41.689  20.063  19.486  0.00  0.00    -0.025 A 
ATOM     14  C   UNL     1      43.080  20.111  19.527  0.00  0.00    +0.178 A 
ATOM     15  N   UNL     1      44.011  20.749  18.726  0.00  0.00    -0.634 N 
ATOM     16  H   UNL     1      43.860  21.390  17.845  0.00  0.00    +0.447 HD
ATOM     17  N   UNL     1      46.284  19.228  20.943  0.00  0.00    -0.437 NA
ATOM     18  C   UNL     1      48.967  20.790  19.007  0.00  0.00    +0.024 A 
ENDROOT
TORSDOF 0
ENDMDL
MODEL 5
REMARK VINA RESULT:      -5.4      2.585      2.966
REMARK  Name = ZINC01724917
REMARK  0 active torsions:
REMARK  status: ('A' for Active; 'I' for Inactive)
REMARK                            x       y       z     vdW  Elec       q    Type
REMARK                         _______ _______ _______ _____ _____    ______ ____
ROOT
ATOM      1  C   UNL     1      49.167  18.774  18.932  0.00  0.00    +0.022 A 
ATOM      2  C   UNL     1      48.477  17.645  18.490  0.00  0.00    +0.020 A 
ATOM      3  C   UNL     1      47.128  17.670  18.320  0.00  0.00    +0.053 A 
ATOM      4  C   UNL     1      46.409  18.848  18.596  0.00  0.00    +0.117 A 
ATOM      5  C   UNL     1      47.114  19.995  19.047  0.00  0.00    -0.067 A 
ATOM      6  C   UNL     1      46.402  21.174  19.325  0.00  0.00    +0.040 A 
ATOM      7  C   UNL     1      45.031  21.168  19.146  0.00  0.00    +0.095 A 
ATOM      8  C   UNL     1      44.395  19.990  18.694  0.00  0.00    +0.150 A 
ATOM      9  C   UNL     1      42.957  20.308  18.607  0.00  0.00    -0.117 A 
ATOM     10  C   UNL     1      41.836  19.570  18.230  0.00  0.00    +0.096 A 
ATOM     11  C   UNL     1      40.590  20.158  18.253  0.00  0.00    -0.027 A 
ATOM     12  C   UNL     1      40.449  21.479  18.649  0.00  0.00    +0.066 A 
ATOM     13  C   UNL     1      41.548  22.223  19.018  0.00  0.00    -0.025 A 
ATOM     14  C   UNL     1      42.815  21.645  19.008  0.00  0.00    +0.178 A 
ATOM     15  N   UNL     1      44.066  22.144  19.327  0.00  0.00    -0.634 N 
ATOM     16  H   UNL     1      44.356  23.146  19.679  0.00  0.00    +0.447 HD
ATOM     17  N   UNL     1      45.085  18.893  18.439  0.00  0.00    -0.437 NA
ATOM     18  C   UNL     1      48.508  19.932  19.209  0.00  0.00    +0.024 A 
ENDROOT
TORSDOF 0
ENDMDL
MODEL 6
REMARK VINA RESULT:      -5.3      1.157      6.211
REMARK  Name = ZINC01724917
REMARK  0 active torsions:
REMARK  status: ('A' for Active; 'I' for Inactive)
REMARK                            x       y       z     vdW  Elec       q    Type
REMARK                         _______ _______ _______ _____ _____    ______ ____
ROOT
ATOM      1  C   UNL     1      40.196  20.574  18.377  0.00  0.00    +0.022 A 
ATOM      2  C   UNL     1      40.603  21.908  18.345  0.00  0.00    +0.020 A 
ATOM      3  C   UNL     1      41.812  22.284  18.842  0.00  0.00    +0.053 A 
ATOM      4  C   UNL     1      42.671  21.318  19.400  0.00  0.00    +0.117 A 
ATOM      5  C   UNL     1      42.254  19.962  19.430  0.00  0.00    -0.067 A 
ATOM      6  C   UNL     1      43.106  18.992  19.987  0.00  0.00    +0.040 A 
ATOM      7  C   UNL     1      44.327  19.404  20.486  0.00  0.00    +0.095 A 
ATOM      8  C   UNL     1      44.677  20.772  20.421  0.00  0.00    +0.150 A 
ATOM      9  C   UNL     1      46.020  20.880  21.026  0.00  0.00    -0.117 A 
ATOM     10  C   UNL     1      46.883  21.950  21.250  0.00  0.00    +0.096 A 
ATOM     11  C   UNL     1      48.103  21.731  21.851  0.00  0.00    -0.027 A 
ATOM     12  C   UNL     1      48.473  20.451  22.235  0.00  0.00    +0.066 A 
ATOM     13  C   UNL     1      47.632  19.383  22.015  0.00  0.00    -0.025 A 
ATOM     14  C   UNL     1      46.392  19.584  21.414  0.00  0.00    +0.178 A 
ATOM     15  N   UNL     1      45.367  18.714  21.083  0.00  0.00    -0.634 N 
ATOM     16  H   UNL     1      45.294  17.626  21.229  0.00  0.00    +0.447 HD
ATOM     17  N   UNL     1      43.860  21.665  19.895  0.00  0.00    -0.437 NA
ATOM     18  C   UNL     1      40.997  19.611  18.907  0.00  0.00    +0.024 A 
ENDROOT
TORSDOF 0
ENDMDL
MODEL 7
REMARK VINA RESULT:      -5.3      1.061      2.390
REMARK  Name = ZINC01724917
REMARK  0 active torsions:
REMARK  status: ('A' for Active; 'I' for Inactive)
REMARK                            x       y       z     vdW  Elec       q    Type
REMARK                         _______ _______ _______ _____ _____    ______ ____
ROOT
ATOM      1  C   UNL     1      48.294  20.582  22.496  0.00  0.00    +0.022 A 
ATOM      2  C   UNL     1      48.093  21.932  22.206  0.00  0.00    +0.020 A 
ATOM      3  C   UNL     1      46.968  22.351  21.567  0.00  0.00    +0.053 A 
ATOM      4  C   UNL     1      45.988  21.416  21.186  0.00  0.00    +0.117 A 
ATOM      5  C   UNL     1      46.196  20.043  21.481  0.00  0.00    -0.067 A 
ATOM      6  C   UNL     1      45.223  19.103  21.103  0.00  0.00    +0.040 A 
ATOM      7  C   UNL     1      44.092  19.559  20.453  0.00  0.00    +0.095 A 
ATOM      8  C   UNL     1      43.951  20.940  20.191  0.00  0.00    +0.150 A 
ATOM      9  C   UNL     1      42.657  21.096  19.498  0.00  0.00    -0.117 A 
ATOM     10  C   UNL     1      41.972  22.199  18.992  0.00  0.00    +0.096 A 
ATOM     11  C   UNL     1      40.749  22.024  18.381  0.00  0.00    -0.027 A 
ATOM     12  C   UNL     1      40.200  20.755  18.269  0.00  0.00    +0.066 A 
ATOM     13  C   UNL     1      40.864  19.657  18.770  0.00  0.00    -0.025 A 
ATOM     14  C   UNL     1      42.103  19.812  19.385  0.00  0.00    +0.178 A 
ATOM     15  N   UNL     1      42.975  18.904  19.962  0.00  0.00    -0.634 N 
ATOM     16  H   UNL     1      42.887  17.813  20.065  0.00  0.00    +0.447 HD
ATOM     17  N   UNL     1      44.879  21.805  20.556  0.00  0.00    -0.437 NA
ATOM     18  C   UNL     1      47.371  19.647  22.145  0.00  0.00    +0.024 A 
ENDROOT
TORSDOF 0
ENDMDL
MODEL 8
REMARK VINA RESULT:      -5.3     22.131     25.012
REMARK  Name = ZINC01724917
REMARK  0 active torsions:
REMARK  status: ('A' for Active; 'I' for Inactive)
REMARK                            x       y       z     vdW  Elec       q    Type
REMARK                         _______ _______ _______ _____ _____    ______ ____
ROOT
ATOM      1  C   UNL     1      34.443  33.662  -1.366  0.00  0.00    +0.022 A 
ATOM      2  C   UNL     1      35.170  34.271  -2.389  0.00  0.00    +0.020 A 
ATOM      3  C   UNL     1      36.492  34.550  -2.239  0.00  0.00    +0.053 A 
ATOM      4  C   UNL     1      37.144  34.226  -1.034  0.00  0.00    +0.117 A 
ATOM      5  C   UNL     1      36.401  33.607   0.005  0.00  0.00    -0.067 A 
ATOM      6  C   UNL     1      37.045  33.281   1.211  0.00  0.00    +0.040 A 
ATOM      7  C   UNL     1      38.389  33.580   1.336  0.00  0.00    +0.095 A 
ATOM      8  C   UNL     1      39.066  34.196   0.259  0.00  0.00    +0.150 A 
ATOM      9  C   UNL     1      40.462  34.377   0.703  0.00  0.00    -0.117 A 
ATOM     10  C   UNL     1      41.594  34.919   0.098  0.00  0.00    +0.096 A 
ATOM     11  C   UNL     1      42.789  34.948   0.783  0.00  0.00    -0.027 A 
ATOM     12  C   UNL     1      42.868  34.441   2.071  0.00  0.00    +0.066 A 
ATOM     13  C   UNL     1      41.758  33.897   2.680  0.00  0.00    -0.025 A 
ATOM     14  C   UNL     1      40.540  33.864   2.006  0.00  0.00    +0.178 A 
ATOM     15  N   UNL     1      39.291  33.391   2.369  0.00  0.00    -0.634 N 
ATOM     16  H   UNL     1      38.962  32.921   3.308  0.00  0.00    +0.447 HD
ATOM     17  N   UNL     1      38.440  34.494  -0.865  0.00  0.00    -0.437 NA
ATOM     18  C   UNL     1      35.036  33.332  -0.188  0.00  0.00    +0.024 A 
ENDROOT
TORSDOF 0
ENDMDL
MODEL 9
REMARK VINA RESULT:      -5.2      4.090      5.332
REMARK  Name = ZINC01724917
REMARK  0 active torsions:
REMARK  status: ('A' for Active; 'I' for Inactive)
REMARK                            x       y       z     vdW  Elec       q    Type
REMARK                         _______ _______ _______ _____ _____    ______ ____
ROOT
ATOM      1  C   UNL     1      52.603  19.241  18.266  0.00  0.00    +0.022 A 
ATOM      2  C   UNL     1      52.504  20.584  18.633  0.00  0.00    +0.020 A 
ATOM      3  C   UNL     1      51.295  21.154  18.883  0.00  0.00    +0.053 A 
ATOM      4  C   UNL     1      50.121  20.385  18.771  0.00  0.00    +0.117 A 
ATOM      5  C   UNL     1      50.226  19.020  18.397  0.00  0.00    -0.067 A 
ATOM      6  C   UNL     1      49.058  18.246  18.282  0.00  0.00    +0.040 A 
ATOM      7  C   UNL     1      47.844  18.854  18.540  0.00  0.00    +0.095 A 
ATOM      8  C   UNL     1      47.814  20.218  18.908  0.00  0.00    +0.150 A 
ATOM      9  C   UNL     1      46.392  20.557  19.112  0.00  0.00    -0.117 A 
ATOM     10  C   UNL     1      45.732  21.728  19.478  0.00  0.00    +0.096 A 
ATOM     11  C   UNL     1      44.359  21.734  19.589  0.00  0.00    -0.027 A 
ATOM     12  C   UNL     1      43.633  20.580  19.337  0.00  0.00    +0.066 A 
ATOM     13  C   UNL     1      44.273  19.413  18.980  0.00  0.00    -0.025 A 
ATOM     14  C   UNL     1      45.659  19.388  18.856  0.00  0.00    +0.178 A 
ATOM     15  N   UNL     1      46.544  18.379  18.516  0.00  0.00    -0.634 N 
ATOM     16  H   UNL     1      46.346  17.330  18.251  0.00  0.00    +0.447 HD
ATOM     17  N   UNL     1      48.925  20.925  19.009  0.00  0.00    -0.437 NA
ATOM     18  C   UNL     1      51.493  18.465  18.147  0.00  0.00    +0.024 A 
ENDROOT
TORSDOF 0
ENDMDL
