MODEL 1
REMARK VINA RESULT:      -6.0      0.000      0.000
REMARK  Name = ZINC00898806
REMARK  2 active torsions:
REMARK  status: ('A' for Active; 'I' for Inactive)
REMARK    1  A    between atoms: C1_1  and  O1_2
REMARK    2  A    between atoms: O1_2  and  C2_3
REMARK                            x       y       z     vdW  Elec       q    Type
REMARK                         _______ _______ _______ _____ _____    ______ ____
ROOT
ATOM      3  C   UNL     1      45.151  20.457  19.004  0.00  0.00    +0.154 A 
ATOM      4  C   UNL     1      45.110  19.239  18.340  0.00  0.00    -0.061 A 
ATOM      5  C   UNL     1      46.279  18.546  18.097  0.00  0.00    +0.098 A 
ATOM      6  C   UNL     1      47.497  19.074  18.518  0.00  0.00    -0.103 A 
ATOM      7  C   UNL     1      47.533  20.291  19.196  0.00  0.00    -0.037 A 
ATOM      8  C   UNL     1      48.852  20.839  19.667  0.00  0.00    +0.118 C 
ATOM      9  C   UNL     1      49.956  20.526  18.660  0.00  0.00    +0.254 C 
ATOM     10  N   UNL     1      51.254  20.907  19.249  0.00  0.00    -0.512 N 
ATOM     11  H   UNL     1      51.250  21.914  19.455  0.00  0.00    +0.441 HD
ATOM     12  H   UNL     1      51.399  20.381  20.119  0.00  0.00    +0.435 HD
ATOM     13  C   UNL     1      52.345  20.607  18.312  0.00  0.00    +0.278 C 
ATOM     14  C   UNL     1      52.488  19.108  18.109  0.00  0.00    +0.132 C 
ATOM     15  C   UNL     1      51.160  18.406  18.062  0.00  0.00    -0.065 A 
ATOM     16  C   UNL     1      51.147  17.056  17.737  0.00  0.00    +0.047 A 
ATOM     17  C   UNL     1      49.957  16.357  17.648  0.00  0.00    +0.075 A 
ATOM     18  O   UNL     1      49.689  15.054  17.338  0.00  0.00    -0.297 OA
ATOM     19  C   UNL     1      48.292  15.024  16.989  0.00  0.00    +0.451 C 
ATOM     20  O   UNL     1      47.731  16.124  17.728  0.00  0.00    -0.296 OA
ATOM     21  C   UNL     1      48.754  17.011  17.894  0.00  0.00    +0.050 A 
ATOM     22  C   UNL     1      49.969  19.058  18.328  0.00  0.00    -0.128 A 
ATOM     23  C   UNL     1      48.766  18.359  18.246  0.00  0.00    +0.022 A 
ATOM     24  C   UNL     1      46.363  20.981  19.432  0.00  0.00    -0.000 A 
ENDROOT
BRANCH   3   2
ATOM      1  C   UNL     1      42.773  20.442  19.001  0.00  0.00    +0.254 C 
ATOM      2  O   UNL     1      43.999  21.139  19.236  0.00  0.00    -0.310 OA
ENDBRANCH   3   2
TORSDOF 1
ENDMDL
MODEL 2
REMARK VINA RESULT:      -5.9      2.341      3.783
REMARK  Name = ZINC00898806
REMARK  2 active torsions:
REMARK  status: ('A' for Active; 'I' for Inactive)
REMARK    1  A    between atoms: C1_1  and  O1_2
REMARK    2  A    between atoms: O1_2  and  C2_3
REMARK                            x       y       z     vdW  Elec       q    Type
REMARK                         _______ _______ _______ _____ _____    ______ ____
ROOT
ATOM      3  C   UNL     1      45.030  20.451  19.119  0.00  0.00    +0.154 A 
ATOM      4  C   UNL     1      46.142  21.139  19.586  0.00  0.00    -0.061 A 
ATOM      5  C   UNL     1      47.411  20.671  19.308  0.00  0.00    +0.098 A 
ATOM      6  C   UNL     1      47.570  19.507  18.560  0.00  0.00    -0.103 A 
ATOM      7  C   UNL     1      46.453  18.825  18.082  0.00  0.00    -0.037 A 
ATOM      8  C   UNL     1      46.638  17.583  17.255  0.00  0.00    +0.118 C 
ATOM      9  C   UNL     1      47.831  16.775  17.758  0.00  0.00    +0.254 C 
ATOM     10  N   UNL     1      48.093  15.677  16.807  0.00  0.00    -0.512 N 
ATOM     11  H   UNL     1      47.265  15.072  16.752  0.00  0.00    +0.441 HD
ATOM     12  H   UNL     1      48.289  16.073  15.879  0.00  0.00    +0.435 HD
ATOM     13  C   UNL     1      49.247  14.884  17.251  0.00  0.00    +0.278 C 
ATOM     14  C   UNL     1      50.525  15.703  17.190  0.00  0.00    +0.132 C 
ATOM     15  C   UNL     1      50.312  17.131  17.606  0.00  0.00    -0.065 A 
ATOM     16  C   UNL     1      51.429  17.947  17.731  0.00  0.00    +0.047 A 
ATOM     17  C   UNL     1      51.305  19.264  18.138  0.00  0.00    +0.075 A 
ATOM     18  O   UNL     1      52.236  20.242  18.345  0.00  0.00    -0.297 OA
ATOM     19  C   UNL     1      51.576  21.232  19.156  0.00  0.00    +0.451 C 
ATOM     20  O   UNL     1      50.185  21.081  18.816  0.00  0.00    -0.296 OA
ATOM     21  C   UNL     1      50.046  19.782  18.420  0.00  0.00    +0.050 A 
ATOM     22  C   UNL     1      49.055  17.646  17.865  0.00  0.00    -0.128 A 
ATOM     23  C   UNL     1      48.922  18.974  18.270  0.00  0.00    +0.022 A 
ATOM     24  C   UNL     1      45.188  19.295  18.367  0.00  0.00    -0.000 A 
ENDROOT
BRANCH   3   2
ATOM      1  C   UNL     1      42.689  20.263  18.750  0.00  0.00    +0.254 C 
ATOM      2  O   UNL     1      43.784  20.911  19.401  0.00  0.00    -0.310 OA
ENDBRANCH   3   2
TORSDOF 1
ENDMDL
MODEL 3
REMARK VINA RESULT:      -5.8     20.242     21.468
REMARK  Name = ZINC00898806
REMARK  2 active torsions:
REMARK  status: ('A' for Active; 'I' for Inactive)
REMARK    1  A    between atoms: C1_1  and  O1_2
REMARK    2  A    between atoms: O1_2  and  C2_3
REMARK                            x       y       z     vdW  Elec       q    Type
REMARK                         _______ _______ _______ _____ _____    ______ ____
ROOT
ATOM      3  C   UNL     1      57.883  31.407   3.658  0.00  0.00    +0.154 A 
ATOM      4  C   UNL     1      56.878  30.876   2.860  0.00  0.00    -0.061 A 
ATOM      5  C   UNL     1      55.585  31.345   2.974  0.00  0.00    +0.098 A 
ATOM      6  C   UNL     1      55.292  32.350   3.892  0.00  0.00    -0.103 A 
ATOM      7  C   UNL     1      56.305  32.890   4.683  0.00  0.00    -0.037 A 
ATOM      8  C   UNL     1      55.980  33.992   5.654  0.00  0.00    +0.118 C 
ATOM      9  C   UNL     1      54.602  33.776   6.273  0.00  0.00    +0.254 C 
ATOM     10  N   UNL     1      54.246  34.970   7.063  0.00  0.00    -0.512 N 
ATOM     11  H   UNL     1      54.941  35.103   7.807  0.00  0.00    +0.441 HD
ATOM     12  H   UNL     1      54.242  35.793   6.449  0.00  0.00    +0.435 HD
ATOM     13  C   UNL     1      52.916  34.804   7.663  0.00  0.00    +0.278 C 
ATOM     14  C   UNL     1      51.838  34.768   6.594  0.00  0.00    +0.132 C 
ATOM     15  C   UNL     1      52.274  34.020   5.365  0.00  0.00    -0.065 A 
ATOM     16  C   UNL     1      51.330  33.792   4.372  0.00  0.00    +0.047 A 
ATOM     17  C   UNL     1      51.658  33.084   3.229  0.00  0.00    +0.075 A 
ATOM     18  O   UNL     1      50.918  32.725   2.139  0.00  0.00    -0.297 OA
ATOM     19  C   UNL     1      51.657  31.663   1.508  0.00  0.00    +0.451 C 
ATOM     20  O   UNL     1      53.021  31.928   1.881  0.00  0.00    -0.296 OA
ATOM     21  C   UNL     1      52.951  32.600   3.066  0.00  0.00    +0.050 A 
ATOM     22  C   UNL     1      53.567  33.560   5.200  0.00  0.00    -0.128 A 
ATOM     23  C   UNL     1      53.907  32.851   4.048  0.00  0.00    +0.022 A 
ATOM     24  C   UNL     1      57.594  32.414   4.568  0.00  0.00    -0.000 A 
ENDROOT
BRANCH   3   2
ATOM      1  C   UNL     1      59.338  29.527   3.683  0.00  0.00    +0.254 C 
ATOM      2  O   UNL     1      59.153  30.938   3.548  0.00  0.00    -0.310 OA
ENDBRANCH   3   2
TORSDOF 1
ENDMDL
MODEL 4
REMARK VINA RESULT:      -5.6      1.842      5.624
REMARK  Name = ZINC00898806
REMARK  2 active torsions:
REMARK  status: ('A' for Active; 'I' for Inactive)
REMARK    1  A    between atoms: C1_1  and  O1_2
REMARK    2  A    between atoms: O1_2  and  C2_3
REMARK                            x       y       z     vdW  Elec       q    Type
REMARK                         _______ _______ _______ _____ _____    ______ ____
ROOT
ATOM      3  C   UNL     1      47.685  16.493  17.442  0.00  0.00    +0.154 A 
ATOM      4  C   UNL     1      46.314  16.714  17.458  0.00  0.00    -0.061 A 
ATOM      5  C   UNL     1      45.802  17.827  18.093  0.00  0.00    +0.098 A 
ATOM      6  C   UNL     1      46.663  18.726  18.716  0.00  0.00    -0.103 A 
ATOM      7  C   UNL     1      48.040  18.508  18.688  0.00  0.00    -0.037 A 
ATOM      8  C   UNL     1      48.962  19.498  19.344  0.00  0.00    +0.118 C 
ATOM      9  C   UNL     1      48.334  20.056  20.618  0.00  0.00    +0.254 C 
ATOM     10  N   UNL     1      49.180  21.157  21.119  0.00  0.00    -0.512 N 
ATOM     11  H   UNL     1      50.118  20.794  21.327  0.00  0.00    +0.441 HD
ATOM     12  H   UNL     1      49.247  21.886  20.400  0.00  0.00    +0.435 HD
ATOM     13  C   UNL     1      48.598  21.729  22.340  0.00  0.00    +0.278 C 
ATOM     14  C   UNL     1      47.279  22.421  22.040  0.00  0.00    +0.132 C 
ATOM     15  C   UNL     1      46.461  21.679  21.021  0.00  0.00    -0.065 A 
ATOM     16  C   UNL     1      45.172  22.130  20.766  0.00  0.00    +0.047 A 
ATOM     17  C   UNL     1      44.356  21.475  19.861  0.00  0.00    +0.075 A 
ATOM     18  O   UNL     1      43.073  21.711  19.457  0.00  0.00    -0.297 OA
ATOM     19  C   UNL     1      42.630  20.483  18.850  0.00  0.00    +0.451 C 
ATOM     20  O   UNL     1      43.847  19.878  18.375  0.00  0.00    -0.296 OA
ATOM     21  C   UNL     1      44.833  20.353  19.190  0.00  0.00    +0.050 A 
ATOM     22  C   UNL     1      46.948  20.577  20.342  0.00  0.00    -0.128 A 
ATOM     23  C   UNL     1      46.134  19.915  19.425  0.00  0.00    +0.022 A 
ATOM     24  C   UNL     1      48.545  17.391  18.056  0.00  0.00    -0.000 A 
ENDROOT
BRANCH   3   2
ATOM      1  C   UNL     1      47.255  14.358  16.486  0.00  0.00    +0.254 C 
ATOM      2  O   UNL     1      48.184  15.392  16.822  0.00  0.00    -0.310 OA
ENDBRANCH   3   2
TORSDOF 1
ENDMDL
MODEL 5
REMARK VINA RESULT:      -5.5      2.468      4.244
REMARK  Name = ZINC00898806
REMARK  2 active torsions:
REMARK  status: ('A' for Active; 'I' for Inactive)
REMARK    1  A    between atoms: C1_1  and  O1_2
REMARK    2  A    between atoms: O1_2  and  C2_3
REMARK                            x       y       z     vdW  Elec       q    Type
REMARK                         _______ _______ _______ _____ _____    ______ ____
ROOT
ATOM      3  C   UNL     1      46.133  19.813  18.882  0.00  0.00    +0.154 A 
ATOM      4  C   UNL     1      47.410  19.893  19.422  0.00  0.00    -0.061 A 
ATOM      5  C   UNL     1      48.371  18.968  19.065  0.00  0.00    +0.098 A 
ATOM      6  C   UNL     1      48.054  17.955  18.164  0.00  0.00    -0.103 A 
ATOM      7  C   UNL     1      46.776  17.884  17.614  0.00  0.00    -0.037 A 
ATOM      8  C   UNL     1      46.453  16.799  16.623  0.00  0.00    +0.118 C 
ATOM      9  C   UNL     1      47.165  15.502  16.995  0.00  0.00    +0.254 C 
ATOM     10  N   UNL     1      46.979  14.530  15.900  0.00  0.00    -0.512 N 
ATOM     11  H   UNL     1      45.976  14.349  15.776  0.00  0.00    +0.441 HD
ATOM     12  H   UNL     1      47.366  14.919  15.033  0.00  0.00    +0.435 HD
ATOM     13  C   UNL     1      47.664  13.270  16.217  0.00  0.00    +0.278 C 
ATOM     14  C   UNL     1      49.171  13.465  16.249  0.00  0.00    +0.132 C 
ATOM     15  C   UNL     1      49.566  14.780  16.858  0.00  0.00    -0.065 A 
ATOM     16  C   UNL     1      50.917  15.018  17.077  0.00  0.00    +0.047 A 
ATOM     17  C   UNL     1      51.347  16.196  17.661  0.00  0.00    +0.075 A 
ATOM     18  O   UNL     1      52.594  16.647  17.986  0.00  0.00    -0.297 OA
ATOM     19  C   UNL     1      52.381  17.711  18.933  0.00  0.00    +0.451 C 
ATOM     20  O   UNL     1      51.076  18.213  18.595  0.00  0.00    -0.296 OA
ATOM     21  C   UNL     1      50.416  17.162  18.029  0.00  0.00    +0.050 A 
ATOM     22  C   UNL     1      48.637  15.745  17.202  0.00  0.00    -0.128 A 
ATOM     23  C   UNL     1      49.063  16.937  17.786  0.00  0.00    +0.022 A 
ATOM     24  C   UNL     1      45.819  18.808  17.978  0.00  0.00    -0.000 A 
ENDROOT
BRANCH   3   2
ATOM      1  C   UNL     1      43.823  20.333  19.088  0.00  0.00    +0.254 C 
ATOM      2  O   UNL     1      45.189  20.721  19.241  0.00  0.00    -0.310 OA
ENDBRANCH   3   2
TORSDOF 1
ENDMDL
MODEL 6
REMARK VINA RESULT:      -5.5      1.104      1.215
REMARK  Name = ZINC00898806
REMARK  2 active torsions:
REMARK  status: ('A' for Active; 'I' for Inactive)
REMARK    1  A    between atoms: C1_1  and  O1_2
REMARK    2  A    between atoms: O1_2  and  C2_3
REMARK                            x       y       z     vdW  Elec       q    Type
REMARK                         _______ _______ _______ _____ _____    ______ ____
ROOT
ATOM      3  C   UNL     1      45.016  21.180  19.394  0.00  0.00    +0.154 A 
ATOM      4  C   UNL     1      44.702  20.143  18.525  0.00  0.00    -0.061 A 
ATOM      5  C   UNL     1      45.681  19.254  18.128  0.00  0.00    +0.098 A 
ATOM      6  C   UNL     1      46.982  19.402  18.600  0.00  0.00    -0.103 A 
ATOM      7  C   UNL     1      47.292  20.437  19.481  0.00  0.00    -0.037 A 
ATOM      8  C   UNL     1      48.697  20.572  20.003  0.00  0.00    +0.118 C 
ATOM      9  C   UNL     1      49.710  20.199  18.923  0.00  0.00    +0.254 C 
ATOM     10  N   UNL     1      51.053  20.158  19.531  0.00  0.00    -0.512 N 
ATOM     11  H   UNL     1      51.281  21.084  19.913  0.00  0.00    +0.441 HD
ATOM     12  H   UNL     1      51.061  19.465  20.289  0.00  0.00    +0.435 HD
ATOM     13  C   UNL     1      52.056  19.787  18.523  0.00  0.00    +0.278 C 
ATOM     14  C   UNL     1      51.849  18.358  18.053  0.00  0.00    +0.132 C 
ATOM     15  C   UNL     1      50.395  18.001  17.922  0.00  0.00    -0.065 A 
ATOM     16  C   UNL     1      50.074  16.771  17.363  0.00  0.00    +0.047 A 
ATOM     17  C   UNL     1      48.754  16.393  17.187  0.00  0.00    +0.075 A 
ATOM     18  O   UNL     1      48.195  15.265  16.659  0.00  0.00    -0.297 OA
ATOM     19  C   UNL     1      46.833  15.621  16.352  0.00  0.00    +0.451 C 
ATOM     20  O   UNL     1      46.534  16.670  17.291  0.00  0.00    -0.296 OA
ATOM     21  C   UNL     1      47.734  17.252  17.581  0.00  0.00    +0.050 A 
ATOM     22  C   UNL     1      49.386  18.851  18.335  0.00  0.00    -0.128 A 
ATOM     23  C   UNL     1      48.054  18.475  18.167  0.00  0.00    +0.022 A 
ATOM     24  C   UNL     1      46.311  21.324  19.871  0.00  0.00    -0.000 A 
ENDROOT
BRANCH   3   2
ATOM      1  C   UNL     1      44.294  23.441  19.525  0.00  0.00    +0.254 C 
ATOM      2  O   UNL     1      44.051  22.056  19.777  0.00  0.00    -0.310 OA
ENDBRANCH   3   2
TORSDOF 1
ENDMDL
MODEL 7
REMARK VINA RESULT:      -5.5      2.686      5.297
REMARK  Name = ZINC00898806
REMARK  2 active torsions:
REMARK  status: ('A' for Active; 'I' for Inactive)
REMARK    1  A    between atoms: C1_1  and  O1_2
REMARK    2  A    between atoms: O1_2  and  C2_3
REMARK                            x       y       z     vdW  Elec       q    Type
REMARK                         _______ _______ _______ _____ _____    ______ ____
ROOT
ATOM      3  C   UNL     1      50.557  20.161  18.194  0.00  0.00    +0.154 A 
ATOM      4  C   UNL     1      50.469  18.784  18.045  0.00  0.00    -0.061 A 
ATOM      5  C   UNL     1      49.330  18.116  18.448  0.00  0.00    +0.098 A 
ATOM      6  C   UNL     1      48.271  18.829  19.004  0.00  0.00    -0.103 A 
ATOM      7  C   UNL     1      48.356  20.213  19.141  0.00  0.00    -0.037 A 
ATOM      8  C   UNL     1      47.196  20.975  19.721  0.00  0.00    +0.118 C 
ATOM      9  C   UNL     1      46.522  20.168  20.827  0.00  0.00    +0.254 C 
ATOM     10  N   UNL     1      45.284  20.861  21.230  0.00  0.00    -0.512 N 
ATOM     11  H   UNL     1      45.519  21.798  21.581  0.00  0.00    +0.441 HD
ATOM     12  H   UNL     1      44.663  20.947  20.416  0.00  0.00    +0.435 HD
ATOM     13  C   UNL     1      44.598  20.105  22.286  0.00  0.00    +0.278 C 
ATOM     14  C   UNL     1      44.089  18.774  21.757  0.00  0.00    +0.132 C 
ATOM     15  C   UNL     1      45.047  18.136  20.792  0.00  0.00    -0.065 A 
ATOM     16  C   UNL     1      44.766  16.851  20.348  0.00  0.00    +0.047 A 
ATOM     17  C   UNL     1      45.622  16.194  19.481  0.00  0.00    +0.075 A 
ATOM     18  O   UNL     1      45.572  14.948  18.925  0.00  0.00    -0.297 OA
ATOM     19  C   UNL     1      46.913  14.675  18.476  0.00  0.00    +0.451 C 
ATOM     20  O   UNL     1      47.459  15.982  18.219  0.00  0.00    -0.296 OA
ATOM     21  C   UNL     1      46.777  16.831  19.041  0.00  0.00    +0.050 A 
ATOM     22  C   UNL     1      46.184  18.782  20.342  0.00  0.00    -0.128 A 
ATOM     23  C   UNL     1      47.049  18.130  19.465  0.00  0.00    +0.022 A 
ATOM     24  C   UNL     1      49.499  20.874  18.742  0.00  0.00    -0.000 A 
ENDROOT
BRANCH   3   2
ATOM      1  C   UNL     1      51.866  21.009  16.400  0.00  0.00    +0.254 C 
ATOM      2  O   UNL     1      51.683  20.813  17.804  0.00  0.00    -0.310 OA
ENDBRANCH   3   2
TORSDOF 1
ENDMDL
MODEL 8
REMARK VINA RESULT:      -5.4      1.599      5.101
REMARK  Name = ZINC00898806
REMARK  2 active torsions:
REMARK  status: ('A' for Active; 'I' for Inactive)
REMARK    1  A    between atoms: C1_1  and  O1_2
REMARK    2  A    between atoms: O1_2  and  C2_3
REMARK                            x       y       z     vdW  Elec       q    Type
REMARK                         _______ _______ _______ _____ _____    ______ ____
ROOT
ATOM      3  C   UNL     1      47.794  14.194  16.885  0.00  0.00    +0.154 A 
ATOM      4  C   UNL     1      46.601  14.779  17.289  0.00  0.00    -0.061 A 
ATOM      5  C   UNL     1      46.586  16.087  17.728  0.00  0.00    +0.098 A 
ATOM      6  C   UNL     1      47.771  16.818  17.764  0.00  0.00    -0.103 A 
ATOM      7  C   UNL     1      48.965  16.233  17.346  0.00  0.00    -0.037 A 
ATOM      8  C   UNL     1      50.235  17.040  17.367  0.00  0.00    +0.118 C 
ATOM      9  C   UNL     1      50.258  17.974  18.574  0.00  0.00    +0.254 C 
ATOM     10  N   UNL     1      51.419  18.877  18.449  0.00  0.00    -0.512 N 
ATOM     11  H   UNL     1      52.281  18.319  18.428  0.00  0.00    +0.441 HD
ATOM     12  H   UNL     1      51.338  19.414  17.578  0.00  0.00    +0.435 HD
ATOM     13  C   UNL     1      51.467  19.803  19.589  0.00  0.00    +0.278 C 
ATOM     14  C   UNL     1      50.285  20.758  19.562  0.00  0.00    +0.132 C 
ATOM     15  C   UNL     1      49.018  20.090  19.111  0.00  0.00    -0.065 A 
ATOM     16  C   UNL     1      47.837  20.818  19.180  0.00  0.00    +0.047 A 
ATOM     17  C   UNL     1      46.630  20.253  18.808  0.00  0.00    +0.075 A 
ATOM     18  O   UNL     1      45.358  20.749  18.799  0.00  0.00    -0.297 OA
ATOM     19  C   UNL     1      44.497  19.597  18.731  0.00  0.00    +0.451 C 
ATOM     20  O   UNL     1      45.304  18.607  18.066  0.00  0.00    -0.296 OA
ATOM     21  C   UNL     1      46.597  18.940  18.350  0.00  0.00    +0.050 A 
ATOM     22  C   UNL     1      48.994  18.791  18.637  0.00  0.00    -0.128 A 
ATOM     23  C   UNL     1      47.783  18.216  18.255  0.00  0.00    +0.022 A 
ATOM     24  C   UNL     1      48.974  14.924  16.913  0.00  0.00    -0.000 A 
ENDROOT
BRANCH   3   2
ATOM      1  C   UNL     1      47.816  12.685  15.048  0.00  0.00    +0.254 C 
ATOM      2  O   UNL     1      47.804  12.904  16.460  0.00  0.00    -0.310 OA
ENDBRANCH   3   2
TORSDOF 1
ENDMDL
MODEL 9
REMARK VINA RESULT:      -5.4     19.944     21.648
REMARK  Name = ZINC00898806
REMARK  2 active torsions:
REMARK  status: ('A' for Active; 'I' for Inactive)
REMARK    1  A    between atoms: C1_1  and  O1_2
REMARK    2  A    between atoms: O1_2  and  C2_3
REMARK                            x       y       z     vdW  Elec       q    Type
REMARK                         _______ _______ _______ _____ _____    ______ ____
ROOT
ATOM      3  C   UNL     1      52.026  31.864   0.400  0.00  0.00    +0.154 A 
ATOM      4  C   UNL     1      51.247  32.026   1.538  0.00  0.00    -0.061 A 
ATOM      5  C   UNL     1      51.831  32.424   2.724  0.00  0.00    +0.098 A 
ATOM      6  C   UNL     1      53.202  32.662   2.774  0.00  0.00    -0.103 A 
ATOM      7  C   UNL     1      53.980  32.511   1.628  0.00  0.00    -0.037 A 
ATOM      8  C   UNL     1      55.456  32.793   1.689  0.00  0.00    +0.118 C 
ATOM      9  C   UNL     1      56.033  32.351   3.031  0.00  0.00    +0.254 C 
ATOM     10  N   UNL     1      57.429  32.820   3.122  0.00  0.00    -0.512 N 
ATOM     11  H   UNL     1      57.976  32.406   2.358  0.00  0.00    +0.441 HD
ATOM     12  H   UNL     1      57.448  33.844   3.040  0.00  0.00    +0.435 HD
ATOM     13  C   UNL     1      58.015  32.424   4.410  0.00  0.00    +0.278 C 
ATOM     14  C   UNL     1      57.334  33.146   5.561  0.00  0.00    +0.132 C 
ATOM     15  C   UNL     1      55.853  33.291   5.352  0.00  0.00    -0.065 A 
ATOM     16  C   UNL     1      55.095  33.805   6.396  0.00  0.00    +0.047 A 
ATOM     17  C   UNL     1      53.723  33.937   6.280  0.00  0.00    +0.075 A 
ATOM     18  O   UNL     1      52.777  34.393   7.153  0.00  0.00    -0.297 OA
ATOM     19  C   UNL     1      51.521  33.897   6.650  0.00  0.00    +0.451 C 
ATOM     20  O   UNL     1      51.750  33.763   5.236  0.00  0.00    -0.296 OA
ATOM     21  C   UNL     1      53.092  33.557   5.101  0.00  0.00    +0.050 A 
ATOM     22  C   UNL     1      55.235  32.931   4.169  0.00  0.00    -0.128 A 
ATOM     23  C   UNL     1      53.853  33.066   4.042  0.00  0.00    +0.022 A 
ATOM     24  C   UNL     1      53.392  32.108   0.447  0.00  0.00    -0.000 A 
ENDROOT
BRANCH   3   2
ATOM      1  C   UNL     1      50.599  32.406  -1.422  0.00  0.00    +0.254 C 
ATOM      2  O   UNL     1      51.449  31.465  -0.763  0.00  0.00    -0.310 OA
ENDBRANCH   3   2
TORSDOF 1
ENDMDL
