MODEL 1
REMARK VINA RESULT:      -6.2      0.000      0.000
REMARK  Name = ZINC13537539
REMARK  12 active torsions:
REMARK  status: ('A' for Active; 'I' for Inactive)
REMARK    1  A    between atoms: C1_1  and  C2_2
REMARK    2  A    between atoms: C2_2  and  C3_3
REMARK    3  A    between atoms: C3_3  and  C4_5
REMARK    4  A    between atoms: C3_3  and  C27_35
REMARK    5  A    between atoms: C5_6  and  C6_7
REMARK    6  A    between atoms: C6_7  and  C7_9
REMARK    7  A    between atoms: C6_7  and  C8_10
REMARK    8  A    between atoms: C12_16  and  C26_34
REMARK    9  A    between atoms: C20_26  and  C25_33
REMARK   10  A    between atoms: C23_29  and  O1_32
REMARK   11  A    between atoms: C27_35  and  C28_36
REMARK   12  A    between atoms: C27_35  and  C29_37
REMARK                            x       y       z     vdW  Elec       q    Type
REMARK                         _______ _______ _______ _____ _____    ______ ____
ROOT
ATOM     10  C   UNL     1      47.598  14.557  17.923  0.00  0.00    -0.006 C 
ATOM     11  C   UNL     1      49.013  13.964  18.052  0.00  0.00    +0.003 C 
ATOM     12  C   UNL     1      49.998  15.154  18.000  0.00  0.00    +0.006 C 
ATOM     13  C   UNL     1      49.198  16.249  17.272  0.00  0.00    +0.008 C 
ATOM     14  C   UNL     1      49.797  17.620  17.482  0.00  0.00    +0.004 C 
ATOM     15  C   UNL     1      51.272  17.607  17.065  0.00  0.00    +0.057 C 
ATOM     16  C   UNL     1      51.869  18.961  17.315  0.00  0.00    -0.052 C 
ATOM     17  C   UNL     1      51.417  19.778  18.220  0.00  0.00    -0.105 C 
ATOM     18  C   UNL     1      50.248  19.477  19.109  0.00  0.00    -0.013 C 
ATOM     19  C   UNL     1      49.121  20.451  18.760  0.00  0.00    +0.025 C 
ATOM     20  C   UNL     1      50.645  19.713  20.569  0.00  0.00    +0.033 C 
ATOM     21  C   UNL     1      51.196  21.133  20.720  0.00  0.00    +0.027 C 
ATOM     22  C   UNL     1      52.462  21.288  19.878  0.00  0.00    +0.163 C 
ATOM     25  C   UNL     1      52.115  21.117  18.395  0.00  0.00    +0.030 C 
ATOM     26  C   UNL     1      49.706  18.067  18.937  0.00  0.00    +0.004 C 
ATOM     27  C   UNL     1      48.236  18.038  19.370  0.00  0.00    +0.013 C 
ATOM     28  C   UNL     1      47.721  16.619  19.281  0.00  0.00    +0.009 C 
ATOM     29  C   UNL     1      47.778  16.097  17.843  0.00  0.00    -0.043 C 
ATOM     30  C   UNL     1      46.726  16.752  16.945  0.00  0.00    +0.027 C 
ENDROOT
BRANCH  10   9
ATOM      9  C   UNL     1      46.924  14.039  16.651  0.00  0.00    +0.018 C 
ATOM     31  C   UNL     1      45.930  12.934  17.014  0.00  0.00    +0.018 C 
BRANCH   9   8
ATOM      7  C   UNL     1      47.869  12.257  15.275  0.00  0.00    -0.046 C 
ATOM      8  C   UNL     1      47.971  13.485  15.718  0.00  0.00    -0.030 C 
BRANCH   7   3
ATOM      3  C   UNL     1      48.910  11.707  14.335  0.00  0.00    +0.020 C 
BRANCH   3   4
ATOM      4  C   UNL     1      49.923  12.802  13.997  0.00  0.00    -0.019 C 
ATOM      5  C   UNL     1      49.875  13.095  12.496  0.00  0.00    +0.013 C 
ATOM      6  C   UNL     1      51.328  12.335  14.381  0.00  0.00    +0.013 C 
ENDBRANCH   3   4
BRANCH   3   2
ATOM      1  C   UNL     1      49.018  10.279  16.383  0.00  0.00    +0.009 C 
ATOM      2  C   UNL     1      49.631  10.535  15.004  0.00  0.00    +0.005 C 
ENDBRANCH   3   2
ENDBRANCH   7   3
ENDBRANCH   9   8
ENDBRANCH  10   9
BRANCH  22  23
ATOM     23  O   UNL     1      53.018  22.587  20.090  0.00  0.00    -0.569 OA
ATOM     24  H   UNL     1      53.612  22.880  19.385  0.00  0.00    +0.378 HD
ENDBRANCH  22  23
TORSDOF 6
ENDMDL
MODEL 2
REMARK VINA RESULT:      -6.0      3.972      7.228
REMARK  Name = ZINC13537539
REMARK  12 active torsions:
REMARK  status: ('A' for Active; 'I' for Inactive)
REMARK    1  A    between atoms: C1_1  and  C2_2
REMARK    2  A    between atoms: C2_2  and  C3_3
REMARK    3  A    between atoms: C3_3  and  C4_5
REMARK    4  A    between atoms: C3_3  and  C27_35
REMARK    5  A    between atoms: C5_6  and  C6_7
REMARK    6  A    between atoms: C6_7  and  C7_9
REMARK    7  A    between atoms: C6_7  and  C8_10
REMARK    8  A    between atoms: C12_16  and  C26_34
REMARK    9  A    between atoms: C20_26  and  C25_33
REMARK   10  A    between atoms: C23_29  and  O1_32
REMARK   11  A    between atoms: C27_35  and  C28_36
REMARK   12  A    between atoms: C27_35  and  C29_37
REMARK                            x       y       z     vdW  Elec       q    Type
REMARK                         _______ _______ _______ _____ _____    ______ ____
ROOT
ATOM     10  C   UNL     1      50.468  20.678  20.759  0.00  0.00    -0.006 C 
ATOM     11  C   UNL     1      50.489  20.821  19.227  0.00  0.00    +0.003 C 
ATOM     12  C   UNL     1      49.030  20.651  18.747  0.00  0.00    +0.006 C 
ATOM     13  C   UNL     1      48.368  19.856  19.888  0.00  0.00    +0.008 C 
ATOM     14  C   UNL     1      46.860  19.942  19.835  0.00  0.00    +0.004 C 
ATOM     15  C   UNL     1      46.367  19.493  18.455  0.00  0.00    +0.057 C 
ATOM     16  C   UNL     1      44.872  19.620  18.398  0.00  0.00    -0.052 C 
ATOM     17  C   UNL     1      44.206  20.467  19.125  0.00  0.00    -0.105 C 
ATOM     18  C   UNL     1      44.840  21.405  20.108  0.00  0.00    -0.013 C 
ATOM     19  C   UNL     1      44.379  21.006  21.511  0.00  0.00    +0.025 C 
ATOM     20  C   UNL     1      44.354  22.832  19.837  0.00  0.00    +0.033 C 
ATOM     21  C   UNL     1      42.824  22.857  19.847  0.00  0.00    +0.027 C 
ATOM     22  C   UNL     1      42.286  21.975  18.719  0.00  0.00    +0.163 C 
ATOM     25  C   UNL     1      42.695  20.520  18.969  0.00  0.00    +0.030 C 
ATOM     26  C   UNL     1      46.359  21.359  20.094  0.00  0.00    +0.004 C 
ATOM     27  C   UNL     1      46.889  21.827  21.455  0.00  0.00    +0.013 C 
ATOM     28  C   UNL     1      48.400  21.863  21.413  0.00  0.00    +0.009 C 
ATOM     29  C   UNL     1      48.982  20.471  21.157  0.00  0.00    -0.043 C 
ATOM     30  C   UNL     1      48.834  19.549  22.369  0.00  0.00    +0.027 C 
ENDROOT
BRANCH  10   9
ATOM      9  C   UNL     1      51.300  19.467  21.187  0.00  0.00    +0.018 C 
ATOM     31  C   UNL     1      52.588  19.946  21.861  0.00  0.00    +0.018 C 
BRANCH   9   8
ATOM      7  C   UNL     1      50.935  17.581  19.681  0.00  0.00    -0.046 C 
ATOM      8  C   UNL     1      51.645  18.642  19.974  0.00  0.00    -0.030 C 
BRANCH   7   3
ATOM      3  C   UNL     1      51.274  16.761  18.463  0.00  0.00    +0.020 C 
BRANCH   3   4
ATOM      4  C   UNL     1      49.984  16.288  17.790  0.00  0.00    -0.019 C 
ATOM      5  C   UNL     1      48.824  16.392  18.782  0.00  0.00    +0.013 C 
ATOM      6  C   UNL     1      50.145  14.834  17.342  0.00  0.00    +0.013 C 
ENDBRANCH   3   4
BRANCH   3   2
ATOM      1  C   UNL     1      51.120  18.308  16.506  0.00  0.00    +0.009 C 
ATOM      2  C   UNL     1      52.077  17.616  17.480  0.00  0.00    +0.005 C 
ENDBRANCH   3   2
ENDBRANCH   7   3
ENDBRANCH   9   8
ENDBRANCH  10   9
BRANCH  22  23
ATOM     23  O   UNL     1      40.862  22.069  18.680  0.00  0.00    -0.569 OA
ATOM     24  H   UNL     1      40.468  21.744  17.858  0.00  0.00    +0.378 HD
ENDBRANCH  22  23
TORSDOF 6
ENDMDL
MODEL 3
REMARK VINA RESULT:      -5.9      3.996      5.986
REMARK  Name = ZINC13537539
REMARK  12 active torsions:
REMARK  status: ('A' for Active; 'I' for Inactive)
REMARK    1  A    between atoms: C1_1  and  C2_2
REMARK    2  A    between atoms: C2_2  and  C3_3
REMARK    3  A    between atoms: C3_3  and  C4_5
REMARK    4  A    between atoms: C3_3  and  C27_35
REMARK    5  A    between atoms: C5_6  and  C6_7
REMARK    6  A    between atoms: C6_7  and  C7_9
REMARK    7  A    between atoms: C6_7  and  C8_10
REMARK    8  A    between atoms: C12_16  and  C26_34
REMARK    9  A    between atoms: C20_26  and  C25_33
REMARK   10  A    between atoms: C23_29  and  O1_32
REMARK   11  A    between atoms: C27_35  and  C28_36
REMARK   12  A    between atoms: C27_35  and  C29_37
REMARK                            x       y       z     vdW  Elec       q    Type
REMARK                         _______ _______ _______ _____ _____    ______ ____
ROOT
ATOM     10  C   UNL     1      48.485  16.519  17.232  0.00  0.00    -0.006 C 
ATOM     11  C   UNL     1      47.563  15.295  17.085  0.00  0.00    +0.003 C 
ATOM     12  C   UNL     1      46.425  15.472  18.116  0.00  0.00    +0.006 C 
ATOM     13  C   UNL     1      47.038  16.417  19.167  0.00  0.00    +0.008 C 
ATOM     14  C   UNL     1      45.980  17.060  20.033  0.00  0.00    +0.004 C 
ATOM     15  C   UNL     1      45.107  15.972  20.672  0.00  0.00    +0.057 C 
ATOM     16  C   UNL     1      44.034  16.620  21.498  0.00  0.00    -0.052 C 
ATOM     17  C   UNL     1      43.579  17.814  21.256  0.00  0.00    -0.105 C 
ATOM     18  C   UNL     1      44.073  18.687  20.142  0.00  0.00    -0.013 C 
ATOM     19  C   UNL     1      44.764  19.904  20.761  0.00  0.00    +0.025 C 
ATOM     20  C   UNL     1      42.881  19.185  19.320  0.00  0.00    +0.033 C 
ATOM     21  C   UNL     1      41.874  19.867  20.249  0.00  0.00    +0.027 C 
ATOM     22  C   UNL     1      41.334  18.853  21.258  0.00  0.00    +0.163 C 
ATOM     25  C   UNL     1      42.478  18.360  22.150  0.00  0.00    +0.030 C 
ATOM     26  C   UNL     1      45.081  17.999  19.236  0.00  0.00    +0.004 C 
ATOM     27  C   UNL     1      45.956  19.061  18.560  0.00  0.00    +0.013 C 
ATOM     28  C   UNL     1      46.901  18.383  17.594  0.00  0.00    +0.009 C 
ATOM     29  C   UNL     1      47.843  17.419  18.322  0.00  0.00    -0.043 C 
ATOM     30  C   UNL     1      48.895  18.155  19.154  0.00  0.00    +0.027 C 
ENDROOT
BRANCH  10   9
ATOM      9  C   UNL     1      49.882  16.077  17.673  0.00  0.00    +0.018 C 
ATOM     31  C   UNL     1      50.935  16.831  16.858  0.00  0.00    +0.018 C 
BRANCH   9   8
ATOM      7  C   UNL     1      50.893  14.156  16.555  0.00  0.00    -0.046 C 
ATOM      8  C   UNL     1      50.035  14.596  17.442  0.00  0.00    -0.030 C 
BRANCH   7   3
ATOM      3  C   UNL     1      51.053  12.675  16.332  0.00  0.00    +0.020 C 
BRANCH   3   4
ATOM      4  C   UNL     1      51.297  12.406  14.845  0.00  0.00    -0.019 C 
ATOM      5  C   UNL     1      51.967  13.625  14.210  0.00  0.00    +0.013 C 
ATOM      6  C   UNL     1      49.962  12.136  14.149  0.00  0.00    +0.013 C 
ENDBRANCH   3   4
BRANCH   3   2
ATOM      1  C   UNL     1      52.678  10.796  16.606  0.00  0.00    +0.009 C 
ATOM      2  C   UNL     1      52.244  12.162  17.144  0.00  0.00    +0.005 C 
ENDBRANCH   3   2
ENDBRANCH   7   3
ENDBRANCH   9   8
ENDBRANCH  10   9
BRANCH  22  23
ATOM     23  O   UNL     1      40.333  19.474  22.067  0.00  0.00    -0.569 OA
ATOM     24  H   UNL     1      39.497  19.631  21.607  0.00  0.00    +0.378 HD
ENDBRANCH  22  23
TORSDOF 6
ENDMDL
MODEL 4
REMARK VINA RESULT:      -5.9      3.162      8.091
REMARK  Name = ZINC13537539
REMARK  12 active torsions:
REMARK  status: ('A' for Active; 'I' for Inactive)
REMARK    1  A    between atoms: C1_1  and  C2_2
REMARK    2  A    between atoms: C2_2  and  C3_3
REMARK    3  A    between atoms: C3_3  and  C4_5
REMARK    4  A    between atoms: C3_3  and  C27_35
REMARK    5  A    between atoms: C5_6  and  C6_7
REMARK    6  A    between atoms: C6_7  and  C7_9
REMARK    7  A    between atoms: C6_7  and  C8_10
REMARK    8  A    between atoms: C12_16  and  C26_34
REMARK    9  A    between atoms: C20_26  and  C25_33
REMARK   10  A    between atoms: C23_29  and  O1_32
REMARK   11  A    between atoms: C27_35  and  C28_36
REMARK   12  A    between atoms: C27_35  and  C29_37
REMARK                            x       y       z     vdW  Elec       q    Type
REMARK                         _______ _______ _______ _____ _____    ______ ____
ROOT
ATOM     10  C   UNL     1      46.007  19.193  19.888  0.00  0.00    -0.006 C 
ATOM     11  C   UNL     1      46.224  19.550  18.406  0.00  0.00    +0.003 C 
ATOM     12  C   UNL     1      46.872  18.313  17.744  0.00  0.00    +0.006 C 
ATOM     13  C   UNL     1      47.524  17.574  18.927  0.00  0.00    +0.008 C 
ATOM     14  C   UNL     1      47.845  16.137  18.586  0.00  0.00    +0.004 C 
ATOM     15  C   UNL     1      48.715  16.090  17.324  0.00  0.00    +0.057 C 
ATOM     16  C   UNL     1      48.996  14.658  16.970  0.00  0.00    -0.052 C 
ATOM     17  C   UNL     1      48.205  13.680  17.298  0.00  0.00    -0.105 C 
ATOM     18  C   UNL     1      46.933  13.857  18.073  0.00  0.00    -0.013 C 
ATOM     19  C   UNL     1      47.101  13.164  19.427  0.00  0.00    +0.025 C 
ATOM     20  C   UNL     1      45.784  13.171  17.328  0.00  0.00    +0.033 C 
ATOM     21  C   UNL     1      46.155  11.711  17.059  0.00  0.00    +0.027 C 
ATOM     22  C   UNL     1      47.382  11.648  16.150  0.00  0.00    +0.163 C 
ATOM     25  C   UNL     1      48.583  12.272  16.869  0.00  0.00    +0.030 C 
ATOM     26  C   UNL     1      46.587  15.312  18.341  0.00  0.00    +0.004 C 
ATOM     27  C   UNL     1      45.695  15.395  19.586  0.00  0.00    +0.013 C 
ATOM     28  C   UNL     1      45.279  16.832  19.803  0.00  0.00    +0.009 C 
ATOM     29  C   UNL     1      46.494  17.729  20.058  0.00  0.00    -0.043 C 
ATOM     30  C   UNL     1      47.115  17.486  21.436  0.00  0.00    +0.027 C 
ENDROOT
BRANCH  10   9
ATOM      9  C   UNL     1      46.828  20.127  20.780  0.00  0.00    +0.018 C 
ATOM     31  C   UNL     1      45.930  21.250  21.304  0.00  0.00    +0.018 C 
BRANCH   9   8
ATOM      7  C   UNL     1      49.199  20.499  20.338  0.00  0.00    -0.046 C 
ATOM      8  C   UNL     1      47.959  20.720  19.980  0.00  0.00    -0.030 C 
BRANCH   7   3
ATOM      3  C   UNL     1      50.330  21.084  19.532  0.00  0.00    +0.020 C 
BRANCH   3   4
ATOM      4  C   UNL     1      51.667  20.648  20.136  0.00  0.00    -0.019 C 
ATOM      5  C   UNL     1      51.428  20.048  21.523  0.00  0.00    +0.013 C 
ATOM      6  C   UNL     1      52.592  21.860  20.257  0.00  0.00    +0.013 C 
ENDBRANCH   3   4
BRANCH   3   2
ATOM      1  C   UNL     1      50.797  19.164  18.002  0.00  0.00    +0.009 C 
ATOM      2  C   UNL     1      50.238  20.587  18.088  0.00  0.00    +0.005 C 
ENDBRANCH   3   2
ENDBRANCH   7   3
ENDBRANCH   9   8
ENDBRANCH  10   9
BRANCH  22  23
ATOM     23  O   UNL     1      47.672  10.285  15.835  0.00  0.00    -0.569 OA
ATOM     24  H   UNL     1      47.848  10.128  14.897  0.00  0.00    +0.378 HD
ENDBRANCH  22  23
TORSDOF 6
ENDMDL
MODEL 5
REMARK VINA RESULT:      -5.9      3.779      6.396
REMARK  Name = ZINC13537539
REMARK  12 active torsions:
REMARK  status: ('A' for Active; 'I' for Inactive)
REMARK    1  A    between atoms: C1_1  and  C2_2
REMARK    2  A    between atoms: C2_2  and  C3_3
REMARK    3  A    between atoms: C3_3  and  C4_5
REMARK    4  A    between atoms: C3_3  and  C27_35
REMARK    5  A    between atoms: C5_6  and  C6_7
REMARK    6  A    between atoms: C6_7  and  C7_9
REMARK    7  A    between atoms: C6_7  and  C8_10
REMARK    8  A    between atoms: C12_16  and  C26_34
REMARK    9  A    between atoms: C20_26  and  C25_33
REMARK   10  A    between atoms: C23_29  and  O1_32
REMARK   11  A    between atoms: C27_35  and  C28_36
REMARK   12  A    between atoms: C27_35  and  C29_37
REMARK                            x       y       z     vdW  Elec       q    Type
REMARK                         _______ _______ _______ _____ _____    ______ ____
ROOT
ATOM     10  C   UNL     1      50.200  18.644  18.301  0.00  0.00    -0.006 C 
ATOM     11  C   UNL     1      49.505  17.720  17.284  0.00  0.00    +0.003 C 
ATOM     12  C   UNL     1      48.040  17.571  17.752  0.00  0.00    +0.006 C 
ATOM     13  C   UNL     1      48.109  17.894  19.256  0.00  0.00    +0.008 C 
ATOM     14  C   UNL     1      46.749  18.222  19.826  0.00  0.00    +0.004 C 
ATOM     15  C   UNL     1      45.774  17.078  19.524  0.00  0.00    +0.057 C 
ATOM     16  C   UNL     1      44.417  17.430  20.058  0.00  0.00    -0.052 C 
ATOM     17  C   UNL     1      44.013  18.656  20.210  0.00  0.00    -0.105 C 
ATOM     18  C   UNL     1      44.848  19.858  19.885  0.00  0.00    -0.013 C 
ATOM     19  C   UNL     1      45.142  20.600  21.190  0.00  0.00    +0.025 C 
ATOM     20  C   UNL     1      44.054  20.798  18.973  0.00  0.00    +0.033 C 
ATOM     21  C   UNL     1      42.713  21.129  19.632  0.00  0.00    +0.027 C 
ATOM     22  C   UNL     1      41.887  19.852  19.791  0.00  0.00    +0.163 C 
ATOM     25  C   UNL     1      42.608  18.892  20.743  0.00  0.00    +0.030 C 
ATOM     26  C   UNL     1      46.181  19.512  19.243  0.00  0.00    +0.004 C 
ATOM     27  C   UNL     1      47.176  20.649  19.505  0.00  0.00    +0.013 C 
ATOM     28  C   UNL     1      48.475  20.345  18.794  0.00  0.00    +0.009 C 
ATOM     29  C   UNL     1      49.111  19.058  19.327  0.00  0.00    -0.043 C 
ATOM     30  C   UNL     1      49.685  19.235  20.735  0.00  0.00    +0.027 C 
ENDROOT
BRANCH  10   9
ATOM      9  C   UNL     1      51.331  17.894  19.008  0.00  0.00    +0.018 C 
ATOM     31  C   UNL     1      52.679  18.443  18.538  0.00  0.00    +0.018 C 
BRANCH   9   8
ATOM      7  C   UNL     1      50.946  15.561  19.613  0.00  0.00    -0.046 C 
ATOM      8  C   UNL     1      51.243  16.426  18.677  0.00  0.00    -0.030 C 
BRANCH   7   3
ATOM      3  C   UNL     1      50.849  14.094  19.280  0.00  0.00    +0.020 C 
BRANCH   3   4
ATOM      4  C   UNL     1      49.381  13.664  19.293  0.00  0.00    -0.019 C 
ATOM      5  C   UNL     1      48.759  13.932  17.921  0.00  0.00    +0.013 C 
ATOM      6  C   UNL     1      48.625  14.456  20.361  0.00  0.00    +0.013 C 
ENDBRANCH   3   4
BRANCH   3   2
ATOM      1  C   UNL     1      52.258  12.553  17.907  0.00  0.00    +0.009 C 
ATOM      2  C   UNL     1      51.440  13.847  17.891  0.00  0.00    +0.005 C 
ENDBRANCH   3   2
ENDBRANCH   7   3
ENDBRANCH   9   8
ENDBRANCH  10   9
BRANCH  22  23
ATOM     23  O   UNL     1      40.604  20.179  20.327  0.00  0.00    -0.569 OA
ATOM     24  H   UNL     1      39.895  19.586  20.041  0.00  0.00    +0.378 HD
ENDBRANCH  22  23
TORSDOF 6
ENDMDL
MODEL 6
REMARK VINA RESULT:      -5.9      4.088      6.380
REMARK  Name = ZINC13537539
REMARK  12 active torsions:
REMARK  status: ('A' for Active; 'I' for Inactive)
REMARK    1  A    between atoms: C1_1  and  C2_2
REMARK    2  A    between atoms: C2_2  and  C3_3
REMARK    3  A    between atoms: C3_3  and  C4_5
REMARK    4  A    between atoms: C3_3  and  C27_35
REMARK    5  A    between atoms: C5_6  and  C6_7
REMARK    6  A    between atoms: C6_7  and  C7_9
REMARK    7  A    between atoms: C6_7  and  C8_10
REMARK    8  A    between atoms: C12_16  and  C26_34
REMARK    9  A    between atoms: C20_26  and  C25_33
REMARK   10  A    between atoms: C23_29  and  O1_32
REMARK   11  A    between atoms: C27_35  and  C28_36
REMARK   12  A    between atoms: C27_35  and  C29_37
REMARK                            x       y       z     vdW  Elec       q    Type
REMARK                         _______ _______ _______ _____ _____    ______ ____
ROOT
ATOM     10  C   UNL     1      48.512  16.783  17.294  0.00  0.00    -0.006 C 
ATOM     11  C   UNL     1      47.620  15.541  17.115  0.00  0.00    +0.003 C 
ATOM     12  C   UNL     1      46.462  15.678  18.128  0.00  0.00    +0.006 C 
ATOM     13  C   UNL     1      47.034  16.622  19.201  0.00  0.00    +0.008 C 
ATOM     14  C   UNL     1      45.948  17.228  20.058  0.00  0.00    +0.004 C 
ATOM     15  C   UNL     1      45.088  16.113  20.666  0.00  0.00    +0.057 C 
ATOM     16  C   UNL     1      43.988  16.726  21.482  0.00  0.00    -0.052 C 
ATOM     17  C   UNL     1      43.510  17.912  21.249  0.00  0.00    -0.105 C 
ATOM     18  C   UNL     1      44.003  18.812  20.155  0.00  0.00    -0.013 C 
ATOM     19  C   UNL     1      44.656  20.035  20.803  0.00  0.00    +0.025 C 
ATOM     20  C   UNL     1      42.815  19.294  19.319  0.00  0.00    +0.033 C 
ATOM     21  C   UNL     1      41.777  19.941  20.240  0.00  0.00    +0.027 C 
ATOM     22  C   UNL     1      41.242  18.901  21.225  0.00  0.00    +0.163 C 
ATOM     25  C   UNL     1      42.381  18.421  22.130  0.00  0.00    +0.030 C 
ATOM     26  C   UNL     1      45.042  18.159  19.258  0.00  0.00    +0.004 C 
ATOM     27  C   UNL     1      45.905  19.249  18.612  0.00  0.00    +0.013 C 
ATOM     28  C   UNL     1      46.881  18.605  17.653  0.00  0.00    +0.009 C 
ATOM     29  C   UNL     1      47.831  17.653  18.385  0.00  0.00    -0.043 C 
ATOM     30  C   UNL     1      48.853  18.400  19.245  0.00  0.00    +0.027 C 
ENDROOT
BRANCH  10   9
ATOM      9  C   UNL     1      49.911  16.366  17.753  0.00  0.00    +0.018 C 
ATOM     31  C   UNL     1      50.949  16.874  16.750  0.00  0.00    +0.018 C 
BRANCH   9   8
ATOM      7  C   UNL     1      49.979  14.269  19.001  0.00  0.00    -0.046 C 
ATOM      8  C   UNL     1      49.985  14.863  17.834  0.00  0.00    -0.030 C 
BRANCH   7   3
ATOM      3  C   UNL     1      50.044  12.766  19.083  0.00  0.00    +0.020 C 
BRANCH   3   4
ATOM      4  C   UNL     1      48.701  12.223  19.576  0.00  0.00    -0.019 C 
ATOM      5  C   UNL     1      47.777  11.985  18.380  0.00  0.00    +0.013 C 
ATOM      6  C   UNL     1      48.057  13.236  20.525  0.00  0.00    +0.013 C 
ENDBRANCH   3   4
BRANCH   3   2
ATOM      1  C   UNL     1      51.593  11.309  17.771  0.00  0.00    +0.009 C 
ATOM      2  C   UNL     1      50.346  12.193  17.696  0.00  0.00    +0.005 C 
ENDBRANCH   3   2
ENDBRANCH   7   3
ENDBRANCH   9   8
ENDBRANCH  10   9
BRANCH  22  23
ATOM     23  O   UNL     1      40.214  19.488  22.025  0.00  0.00    -0.569 OA
ATOM     24  H   UNL     1      39.454  18.909  22.174  0.00  0.00    +0.378 HD
ENDBRANCH  22  23
TORSDOF 6
ENDMDL
MODEL 7
REMARK VINA RESULT:      -5.8      4.425      7.434
REMARK  Name = ZINC13537539
REMARK  12 active torsions:
REMARK  status: ('A' for Active; 'I' for Inactive)
REMARK    1  A    between atoms: C1_1  and  C2_2
REMARK    2  A    between atoms: C2_2  and  C3_3
REMARK    3  A    between atoms: C3_3  and  C4_5
REMARK    4  A    between atoms: C3_3  and  C27_35
REMARK    5  A    between atoms: C5_6  and  C6_7
REMARK    6  A    between atoms: C6_7  and  C7_9
REMARK    7  A    between atoms: C6_7  and  C8_10
REMARK    8  A    between atoms: C12_16  and  C26_34
REMARK    9  A    between atoms: C20_26  and  C25_33
REMARK   10  A    between atoms: C23_29  and  O1_32
REMARK   11  A    between atoms: C27_35  and  C28_36
REMARK   12  A    between atoms: C27_35  and  C29_37
REMARK                            x       y       z     vdW  Elec       q    Type
REMARK                         _______ _______ _______ _____ _____    ______ ____
ROOT
ATOM     10  C   UNL     1      49.894  19.836  18.631  0.00  0.00    -0.006 C 
ATOM     11  C   UNL     1      49.617  18.423  18.086  0.00  0.00    +0.003 C 
ATOM     12  C   UNL     1      48.353  17.910  18.812  0.00  0.00    +0.006 C 
ATOM     13  C   UNL     1      48.317  18.746  20.104  0.00  0.00    +0.008 C 
ATOM     14  C   UNL     1      46.955  18.718  20.758  0.00  0.00    +0.004 C 
ATOM     15  C   UNL     1      46.528  17.264  20.996  0.00  0.00    +0.057 C 
ATOM     16  C   UNL     1      45.158  17.245  21.608  0.00  0.00    -0.052 C 
ATOM     17  C   UNL     1      44.290  18.196  21.430  0.00  0.00    -0.105 C 
ATOM     18  C   UNL     1      44.552  19.424  20.610  0.00  0.00    -0.013 C 
ATOM     19  C   UNL     1      44.545  20.633  21.548  0.00  0.00    +0.025 C 
ATOM     20  C   UNL     1      43.422  19.606  19.592  0.00  0.00    +0.033 C 
ATOM     21  C   UNL     1      42.078  19.618  20.324  0.00  0.00    +0.027 C 
ATOM     22  C   UNL     1      41.852  18.272  21.012  0.00  0.00    +0.163 C 
ATOM     25  C   UNL     1      42.925  18.059  22.085  0.00  0.00    +0.030 C 
ATOM     26  C   UNL     1      45.895  19.401  19.900  0.00  0.00    +0.004 C 
ATOM     27  C   UNL     1      46.342  20.841  19.622  0.00  0.00    +0.013 C 
ATOM     28  C   UNL     1      47.635  20.817  18.840  0.00  0.00    +0.009 C 
ATOM     29  C   UNL     1      48.755  20.145  19.639  0.00  0.00    -0.043 C 
ATOM     30  C   UNL     1      49.237  21.011  20.804  0.00  0.00    +0.027 C 
ENDROOT
BRANCH  10   9
ATOM      9  C   UNL     1      51.249  19.870  19.343  0.00  0.00    +0.018 C 
ATOM     31  C   UNL     1      52.198  20.801  18.586  0.00  0.00    +0.018 C 
BRANCH   9   8
ATOM      7  C   UNL     1      51.929  17.842  20.518  0.00  0.00    -0.046 C 
ATOM      8  C   UNL     1      51.831  18.481  19.379  0.00  0.00    -0.030 C 
BRANCH   7   3
ATOM      3  C   UNL     1      52.503  16.449  20.553  0.00  0.00    +0.020 C 
BRANCH   3   4
ATOM      4  C   UNL     1      51.373  15.436  20.751  0.00  0.00    -0.019 C 
ATOM      5  C   UNL     1      50.796  15.045  19.390  0.00  0.00    +0.013 C 
ATOM      6  C   UNL     1      50.273  16.058  21.613  0.00  0.00    +0.013 C 
ENDBRANCH   3   4
BRANCH   3   2
ATOM      1  C   UNL     1      54.673  15.770  19.518  0.00  0.00    +0.009 C 
ATOM      2  C   UNL     1      53.221  16.160  19.233  0.00  0.00    +0.005 C 
ENDBRANCH   3   2
ENDBRANCH   7   3
ENDBRANCH   9   8
ENDBRANCH  10   9
BRANCH  22  23
ATOM     23  O   UNL     1      40.560  18.259  21.621  0.00  0.00    -0.569 OA
ATOM     24  H   UNL     1      39.911  17.715  21.155  0.00  0.00    +0.378 HD
ENDBRANCH  22  23
TORSDOF 6
ENDMDL
MODEL 8
REMARK VINA RESULT:      -5.7      4.256      8.198
REMARK  Name = ZINC13537539
REMARK  12 active torsions:
REMARK  status: ('A' for Active; 'I' for Inactive)
REMARK    1  A    between atoms: C1_1  and  C2_2
REMARK    2  A    between atoms: C2_2  and  C3_3
REMARK    3  A    between atoms: C3_3  and  C4_5
REMARK    4  A    between atoms: C3_3  and  C27_35
REMARK    5  A    between atoms: C5_6  and  C6_7
REMARK    6  A    between atoms: C6_7  and  C7_9
REMARK    7  A    between atoms: C6_7  and  C8_10
REMARK    8  A    between atoms: C12_16  and  C26_34
REMARK    9  A    between atoms: C20_26  and  C25_33
REMARK   10  A    between atoms: C23_29  and  O1_32
REMARK   11  A    between atoms: C27_35  and  C28_36
REMARK   12  A    between atoms: C27_35  and  C29_37
REMARK                            x       y       z     vdW  Elec       q    Type
REMARK                         _______ _______ _______ _____ _____    ______ ____
ROOT
ATOM     10  C   UNL     1      46.541  21.129  20.979  0.00  0.00    -0.006 C 
ATOM     11  C   UNL     1      46.248  20.016  22.002  0.00  0.00    +0.003 C 
ATOM     12  C   UNL     1      46.684  18.687  21.346  0.00  0.00    +0.006 C 
ATOM     13  C   UNL     1      46.638  18.999  19.839  0.00  0.00    +0.008 C 
ATOM     14  C   UNL     1      47.423  17.993  19.030  0.00  0.00    +0.004 C 
ATOM     15  C   UNL     1      46.924  16.577  19.344  0.00  0.00    +0.057 C 
ATOM     16  C   UNL     1      47.736  15.583  18.567  0.00  0.00    -0.052 C 
ATOM     17  C   UNL     1      48.956  15.812  18.182  0.00  0.00    -0.105 C 
ATOM     18  C   UNL     1      49.692  17.090  18.452  0.00  0.00    -0.013 C 
ATOM     19  C   UNL     1      49.950  17.783  17.113  0.00  0.00    +0.025 C 
ATOM     20  C   UNL     1      51.047  16.771  19.090  0.00  0.00    +0.033 C 
ATOM     21  C   UNL     1      51.809  15.788  18.198  0.00  0.00    +0.027 C 
ATOM     22  C   UNL     1      51.035  14.473  18.101  0.00  0.00    +0.163 C 
ATOM     25  C   UNL     1      49.687  14.721  17.416  0.00  0.00    +0.030 C 
ATOM     26  C   UNL     1      48.917  18.059  19.330  0.00  0.00    +0.004 C 
ATOM     27  C   UNL     1      49.410  19.485  19.060  0.00  0.00    +0.013 C 
ATOM     28  C   UNL     1      48.701  20.440  19.994  0.00  0.00    +0.009 C 
ATOM     29  C   UNL     1      47.189  20.432  19.752  0.00  0.00    -0.043 C 
ATOM     30  C   UNL     1      46.808  21.114  18.436  0.00  0.00    +0.027 C 
ENDROOT
BRANCH  10   9
ATOM      9  C   UNL     1      45.240  21.820  20.564  0.00  0.00    +0.018 C 
ATOM     31  C   UNL     1      45.002  23.037  21.460  0.00  0.00    +0.018 C 
BRANCH   9   8
ATOM      7  C   UNL     1      43.356  20.550  19.672  0.00  0.00    -0.046 C 
ATOM      8  C   UNL     1      44.091  20.856  20.712  0.00  0.00    -0.030 C 
BRANCH   7   3
ATOM      3  C   UNL     1      42.213  19.579  19.817  0.00  0.00    +0.020 C 
BRANCH   3   4
ATOM      4  C   UNL     1      42.084  19.157  21.282  0.00  0.00    -0.019 C 
ATOM      5  C   UNL     1      42.851  17.853  21.507  0.00  0.00    +0.013 C 
ATOM      6  C   UNL     1      40.608  18.946  21.625  0.00  0.00    +0.013 C 
ENDBRANCH   3   4
BRANCH   3   2
ATOM      1  C   UNL     1      41.235  21.599  18.719  0.00  0.00    +0.009 C 
ATOM      2  C   UNL     1      40.914  20.249  19.364  0.00  0.00    +0.005 C 
ENDBRANCH   3   2
ENDBRANCH   7   3
ENDBRANCH   9   8
ENDBRANCH  10   9
BRANCH  22  23
ATOM     23  O   UNL     1      51.791  13.531  17.337  0.00  0.00    -0.569 OA
ATOM     24  H   UNL     1      52.233  12.857  17.870  0.00  0.00    +0.378 HD
ENDBRANCH  22  23
TORSDOF 6
ENDMDL
MODEL 9
REMARK VINA RESULT:      -5.7      3.441      7.929
REMARK  Name = ZINC13537539
REMARK  12 active torsions:
REMARK  status: ('A' for Active; 'I' for Inactive)
REMARK    1  A    between atoms: C1_1  and  C2_2
REMARK    2  A    between atoms: C2_2  and  C3_3
REMARK    3  A    between atoms: C3_3  and  C4_5
REMARK    4  A    between atoms: C3_3  and  C27_35
REMARK    5  A    between atoms: C5_6  and  C6_7
REMARK    6  A    between atoms: C6_7  and  C7_9
REMARK    7  A    between atoms: C6_7  and  C8_10
REMARK    8  A    between atoms: C12_16  and  C26_34
REMARK    9  A    between atoms: C20_26  and  C25_33
REMARK   10  A    between atoms: C23_29  and  O1_32
REMARK   11  A    between atoms: C27_35  and  C28_36
REMARK   12  A    between atoms: C27_35  and  C29_37
REMARK                            x       y       z     vdW  Elec       q    Type
REMARK                         _______ _______ _______ _____ _____    ______ ____
ROOT
ATOM     10  C   UNL     1      44.744  16.632  20.283  0.00  0.00    -0.006 C 
ATOM     11  C   UNL     1      44.828  17.652  19.134  0.00  0.00    +0.003 C 
ATOM     12  C   UNL     1      46.123  17.334  18.354  0.00  0.00    +0.006 C 
ATOM     13  C   UNL     1      46.988  16.587  19.385  0.00  0.00    +0.008 C 
ATOM     14  C   UNL     1      48.110  15.816  18.730  0.00  0.00    +0.004 C 
ATOM     15  C   UNL     1      48.941  16.762  17.853  0.00  0.00    +0.057 C 
ATOM     16  C   UNL     1      50.028  15.980  17.174  0.00  0.00    -0.052 C 
ATOM     17  C   UNL     1      49.930  14.710  16.915  0.00  0.00    -0.105 C 
ATOM     18  C   UNL     1      48.737  13.874  17.269  0.00  0.00    -0.013 C 
ATOM     19  C   UNL     1      49.169  12.848  18.319  0.00  0.00    +0.025 C 
ATOM     20  C   UNL     1      48.263  13.113  16.028  0.00  0.00    +0.033 C 
ATOM     21  C   UNL     1      49.432  12.317  15.444  0.00  0.00    +0.027 C 
ATOM     22  C   UNL     1      50.534  13.275  14.992  0.00  0.00    +0.163 C 
ATOM     25  C   UNL     1      51.088  14.028  16.206  0.00  0.00    +0.030 C 
ATOM     26  C   UNL     1      47.589  14.678  17.859  0.00  0.00    +0.004 C 
ATOM     27  C   UNL     1      46.721  13.756  18.723  0.00  0.00    +0.013 C 
ATOM     28  C   UNL     1      45.533  14.534  19.239  0.00  0.00    +0.009 C 
ATOM     29  C   UNL     1      45.975  15.699  20.128  0.00  0.00    -0.043 C 
ATOM     30  C   UNL     1      46.512  15.226  21.481  0.00  0.00    +0.027 C 
ENDROOT
BRANCH  10   9
ATOM      9  C   UNL     1      44.796  17.352  21.632  0.00  0.00    +0.018 C 
ATOM     31  C   UNL     1      43.515  17.060  22.416  0.00  0.00    +0.018 C 
BRANCH   9   8
ATOM      7  C   UNL     1      46.085  19.422  21.512  0.00  0.00    -0.046 C 
ATOM      8  C   UNL     1      44.918  18.836  21.404  0.00  0.00    -0.030 C 
BRANCH   7   3
ATOM      3  C   UNL     1      46.209  20.904  21.275  0.00  0.00    +0.020 C 
BRANCH   3   4
ATOM      4  C   UNL     1      47.086  21.154  20.046  0.00  0.00    -0.019 C 
ATOM      5  C   UNL     1      46.216  21.143  18.788  0.00  0.00    +0.013 C 
ATOM      6  C   UNL     1      48.146  20.055  19.944  0.00  0.00    +0.013 C 
ENDBRANCH   3   4
BRANCH   3   2
ATOM      1  C   UNL     1      44.713  22.848  21.755  0.00  0.00    +0.009 C 
ATOM      2  C   UNL     1      44.819  21.500  21.038  0.00  0.00    +0.005 C 
ENDBRANCH   3   2
ENDBRANCH   7   3
ENDBRANCH   9   8
ENDBRANCH  10   9
BRANCH  22  23
ATOM     23  O   UNL     1      51.585  12.534  14.371  0.00  0.00    -0.569 OA
ATOM     24  H   UNL     1      51.706  12.732  13.432  0.00  0.00    +0.378 HD
ENDBRANCH  22  23
TORSDOF 6
ENDMDL
