MODEL 1
REMARK VINA RESULT:      -7.1      0.000      0.000
REMARK  Name = ZINC95486180
REMARK  10 active torsions:
REMARK  status: ('A' for Active; 'I' for Inactive)
REMARK    1  A    between atoms: C1_1  and  C2_2
REMARK    2  A    between atoms: C5_5  and  C28_34
REMARK    3  A    between atoms: C9_11  and  C27_33
REMARK    4  A    between atoms: C14_18  and  C26_32
REMARK    5  A    between atoms: C18_23  and  C25_31
REMARK    6  A    between atoms: C22_28  and  C23_29
REMARK    7  A    between atoms: C22_28  and  C24_30
REMARK    8  A    between atoms: C28_34  and  C29_35
REMARK    9  A    between atoms: C28_34  and  C30_36
REMARK   10  A    between atoms: C28_34  and  O2_37
REMARK                            x       y       z     vdW  Elec       q    Type
REMARK                         _______ _______ _______ _____ _____    ______ ____
ROOT
ATOM      1  C   UNL     1      43.229  19.630  18.632  0.00  0.00    +0.029 C 
ATOM      2  C   UNL     1      44.187  19.875  19.803  0.00  0.00    -0.042 C 
ATOM      3  C   UNL     1      43.373  20.236  21.091  0.00  0.00    +0.006 C 
ATOM      4  C   UNL     1      44.389  20.989  21.973  0.00  0.00    +0.003 C 
ATOM      5  C   UNL     1      45.379  21.660  21.003  0.00  0.00    -0.030 C 
ATOM     11  C   UNL     1      45.047  18.673  20.178  0.00  0.00    +0.010 C 
ATOM     12  C   UNL     1      44.207  17.398  20.239  0.00  0.00    +0.005 C 
ATOM     13  C   UNL     1      45.062  16.257  20.812  0.00  0.00    +0.006 C 
ATOM     14  C   UNL     1      46.272  16.055  19.899  0.00  0.00    +0.009 C 
ATOM     15  C   UNL     1      47.126  17.311  19.868  0.00  0.00    -0.023 C 
ATOM     16  C   UNL     1      47.607  17.720  21.267  0.00  0.00    +0.017 C 
ATOM     17  C   UNL     1      48.362  17.112  18.994  0.00  0.00    +0.011 C 
ATOM     18  C   UNL     1      49.107  15.828  19.328  0.00  0.00    +0.016 C 
ATOM     19  C   UNL     1      48.234  14.578  19.344  0.00  0.00    +0.006 C 
ATOM     20  C   UNL     1      48.038  13.981  17.967  0.00  0.00    -0.093 C 
ATOM     21  C   UNL     1      47.798  15.023  16.874  0.00  0.00    +0.056 C 
ATOM     22  C   UNL     1      49.318  13.198  17.588  0.00  0.00    +0.040 C 
ATOM     23  C   UNL     1      46.893  12.992  17.927  0.00  0.00    +0.370 C 
ATOM     24  O   UNL     1      46.989  11.952  17.325  0.00  0.00    -0.452 OA
ATOM     25  C   UNL     1      45.623  13.354  18.667  0.00  0.00    +0.014 C 
ATOM     26  C   UNL     1      46.039  13.581  20.120  0.00  0.00    +0.035 C 
ATOM     27  C   UNL     1      47.009  14.768  20.219  0.00  0.00    -0.036 C 
ATOM     28  C   UNL     1      47.475  14.743  21.692  0.00  0.00    +0.021 C 
ATOM     29  C   UNL     1      46.278  18.475  19.307  0.00  0.00    -0.029 C 
ATOM     30  C   UNL     1      45.881  18.155  17.861  0.00  0.00    +0.019 C 
ATOM     31  C   UNL     1      47.113  19.760  19.310  0.00  0.00    +0.015 C 
ATOM     32  C   UNL     1      46.271  20.912  18.761  0.00  0.00    +0.004 C 
ATOM     33  C   UNL     1      45.035  21.140  19.603  0.00  0.00    +0.007 C 
ENDROOT
BRANCH   5   6
ATOM      6  C   UNL     1      45.214  23.182  21.054  0.00  0.00    +0.133 C 
ATOM      9  C   UNL     1      44.759  23.693  19.684  0.00  0.00    +0.053 C 
ATOM     10  C   UNL     1      46.552  23.829  21.419  0.00  0.00    +0.004 C 
BRANCH   6   7
ATOM      7  O   UNL     1      44.235  23.522  22.037  0.00  0.00    -0.556 OA
ATOM      8  H   UNL     1      44.171  24.470  22.217  0.00  0.00    +0.372 HD
ENDBRANCH   6   7
ENDBRANCH   5   6
TORSDOF 2
ENDMDL
MODEL 2
REMARK VINA RESULT:      -6.7      3.256      5.045
REMARK  Name = ZINC95486180
REMARK  10 active torsions:
REMARK  status: ('A' for Active; 'I' for Inactive)
REMARK    1  A    between atoms: C1_1  and  C2_2
REMARK    2  A    between atoms: C5_5  and  C28_34
REMARK    3  A    between atoms: C9_11  and  C27_33
REMARK    4  A    between atoms: C14_18  and  C26_32
REMARK    5  A    between atoms: C18_23  and  C25_31
REMARK    6  A    between atoms: C22_28  and  C23_29
REMARK    7  A    between atoms: C22_28  and  C24_30
REMARK    8  A    between atoms: C28_34  and  C29_35
REMARK    9  A    between atoms: C28_34  and  C30_36
REMARK   10  A    between atoms: C28_34  and  O2_37
REMARK                            x       y       z     vdW  Elec       q    Type
REMARK                         _______ _______ _______ _____ _____    ______ ____
ROOT
ATOM      1  C   UNL     1      45.182  18.532  22.425  0.00  0.00    +0.029 C 
ATOM      2  C   UNL     1      45.301  19.557  21.292  0.00  0.00    -0.042 C 
ATOM      3  C   UNL     1      44.702  20.929  21.751  0.00  0.00    +0.006 C 
ATOM      4  C   UNL     1      44.359  21.645  20.429  0.00  0.00    +0.003 C 
ATOM      5  C   UNL     1      44.053  20.531  19.410  0.00  0.00    -0.030 C 
ATOM     11  C   UNL     1      46.730  19.853  20.854  0.00  0.00    +0.010 C 
ATOM     12  C   UNL     1      47.639  20.065  22.064  0.00  0.00    +0.005 C 
ATOM     13  C   UNL     1      49.014  20.556  21.584  0.00  0.00    +0.006 C 
ATOM     14  C   UNL     1      49.606  19.497  20.652  0.00  0.00    +0.009 C 
ATOM     15  C   UNL     1      48.719  19.314  19.431  0.00  0.00    -0.023 C 
ATOM     16  C   UNL     1      48.523  20.623  18.654  0.00  0.00    +0.017 C 
ATOM     17  C   UNL     1      49.318  18.290  18.468  0.00  0.00    +0.011 C 
ATOM     18  C   UNL     1      50.784  18.563  18.171  0.00  0.00    +0.016 C 
ATOM     19  C   UNL     1      51.658  18.735  19.409  0.00  0.00    +0.006 C 
ATOM     20  C   UNL     1      52.129  17.415  19.982  0.00  0.00    -0.093 C 
ATOM     21  C   UNL     1      51.051  16.331  19.996  0.00  0.00    +0.056 C 
ATOM     22  C   UNL     1      53.298  16.895  19.113  0.00  0.00    +0.040 C 
ATOM     23  C   UNL     1      52.663  17.559  21.391  0.00  0.00    +0.370 C 
ATOM     24  O   UNL     1      53.663  16.982  21.741  0.00  0.00    -0.452 OA
ATOM     25  C   UNL     1      51.898  18.449  22.348  0.00  0.00    +0.014 C 
ATOM     26  C   UNL     1      51.851  19.825  21.687  0.00  0.00    +0.035 C 
ATOM     27  C   UNL     1      51.072  19.758  20.364  0.00  0.00    -0.036 C 
ATOM     28  C   UNL     1      51.280  21.156  19.740  0.00  0.00    +0.021 C 
ATOM     29  C   UNL     1      47.326  18.833  19.896  0.00  0.00    -0.029 C 
ATOM     30  C   UNL     1      47.467  17.464  20.571  0.00  0.00    +0.019 C 
ATOM     31  C   UNL     1      46.407  18.685  18.679  0.00  0.00    +0.015 C 
ATOM     32  C   UNL     1      45.027  18.216  19.140  0.00  0.00    +0.004 C 
ATOM     33  C   UNL     1      44.401  19.206  20.097  0.00  0.00    +0.007 C 
ENDROOT
BRANCH   5   6
ATOM      6  C   UNL     1      42.569  20.555  19.035  0.00  0.00    +0.133 C 
ATOM      9  C   UNL     1      42.027  21.979  19.184  0.00  0.00    +0.053 C 
ATOM     10  C   UNL     1      41.794  19.617  19.962  0.00  0.00    +0.004 C 
BRANCH   6   7
ATOM      7  O   UNL     1      42.412  20.126  17.682  0.00  0.00    -0.556 OA
ATOM      8  H   UNL     1      41.533  20.294  17.315  0.00  0.00    +0.372 HD
ENDBRANCH   6   7
ENDBRANCH   5   6
TORSDOF 2
ENDMDL
MODEL 3
REMARK VINA RESULT:      -6.6      1.321      2.294
REMARK  Name = ZINC95486180
REMARK  10 active torsions:
REMARK  status: ('A' for Active; 'I' for Inactive)
REMARK    1  A    between atoms: C1_1  and  C2_2
REMARK    2  A    between atoms: C5_5  and  C28_34
REMARK    3  A    between atoms: C9_11  and  C27_33
REMARK    4  A    between atoms: C14_18  and  C26_32
REMARK    5  A    between atoms: C18_23  and  C25_31
REMARK    6  A    between atoms: C22_28  and  C23_29
REMARK    7  A    between atoms: C22_28  and  C24_30
REMARK    8  A    between atoms: C28_34  and  C29_35
REMARK    9  A    between atoms: C28_34  and  C30_36
REMARK   10  A    between atoms: C28_34  and  O2_37
REMARK                            x       y       z     vdW  Elec       q    Type
REMARK                         _______ _______ _______ _____ _____    ______ ____
ROOT
ATOM      1  C   UNL     1      44.431  19.176  22.215  0.00  0.00    +0.029 C 
ATOM      2  C   UNL     1      45.477  20.029  21.488  0.00  0.00    -0.042 C 
ATOM      3  C   UNL     1      46.186  20.985  22.505  0.00  0.00    +0.006 C 
ATOM      4  C   UNL     1      46.741  22.120  21.623  0.00  0.00    +0.003 C 
ATOM      5  C   UNL     1      45.798  22.215  20.409  0.00  0.00    -0.030 C 
ATOM     11  C   UNL     1      46.591  19.229  20.823  0.00  0.00    +0.010 C 
ATOM     12  C   UNL     1      47.125  18.149  21.763  0.00  0.00    +0.005 C 
ATOM     13  C   UNL     1      48.372  17.505  21.136  0.00  0.00    +0.006 C 
ATOM     14  C   UNL     1      47.975  16.893  19.792  0.00  0.00    +0.009 C 
ATOM     15  C   UNL     1      47.479  17.974  18.845  0.00  0.00    -0.023 C 
ATOM     16  C   UNL     1      48.528  19.070  18.615  0.00  0.00    +0.017 C 
ATOM     17  C   UNL     1      47.118  17.386  17.483  0.00  0.00    +0.011 C 
ATOM     18  C   UNL     1      48.217  16.491  16.929  0.00  0.00    +0.016 C 
ATOM     19  C   UNL     1      48.694  15.408  17.891  0.00  0.00    +0.006 C 
ATOM     20  C   UNL     1      47.820  14.172  17.862  0.00  0.00    -0.093 C 
ATOM     21  C   UNL     1      46.324  14.479  17.795  0.00  0.00    +0.056 C 
ATOM     22  C   UNL     1      48.181  13.348  16.603  0.00  0.00    +0.040 C 
ATOM     23  C   UNL     1      48.058  13.273  19.056  0.00  0.00    +0.370 C 
ATOM     24  O   UNL     1      48.117  12.075  18.932  0.00  0.00    -0.452 OA
ATOM     25  C   UNL     1      48.216  13.928  20.411  0.00  0.00    +0.014 C 
ATOM     26  C   UNL     1      49.390  14.895  20.271  0.00  0.00    +0.035 C 
ATOM     27  C   UNL     1      49.063  15.989  19.243  0.00  0.00    -0.036 C 
ATOM     28  C   UNL     1      50.395  16.754  19.078  0.00  0.00    +0.021 C 
ATOM     29  C   UNL     1      46.232  18.643  19.466  0.00  0.00    -0.029 C 
ATOM     30  C   UNL     1      45.116  17.601  19.598  0.00  0.00    +0.019 C 
ATOM     31  C   UNL     1      45.746  19.766  18.543  0.00  0.00    +0.015 C 
ATOM     32  C   UNL     1      44.516  20.432  19.160  0.00  0.00    +0.004 C 
ATOM     33  C   UNL     1      44.834  21.028  20.514  0.00  0.00    +0.007 C 
ENDROOT
BRANCH   5   6
ATOM      6  C   UNL     1      45.017  23.531  20.452  0.00  0.00    +0.133 C 
ATOM      9  C   UNL     1      44.542  23.891  19.043  0.00  0.00    +0.053 C 
ATOM     10  C   UNL     1      45.924  24.645  20.982  0.00  0.00    +0.004 C 
BRANCH   6   7
ATOM      7  O   UNL     1      43.887  23.386  21.314  0.00  0.00    -0.556 OA
ATOM      8  H   UNL     1      43.477  22.511  21.280  0.00  0.00    +0.372 HD
ENDBRANCH   6   7
ENDBRANCH   5   6
TORSDOF 2
ENDMDL
MODEL 4
REMARK VINA RESULT:      -6.5      2.464      4.377
REMARK  Name = ZINC95486180
REMARK  10 active torsions:
REMARK  status: ('A' for Active; 'I' for Inactive)
REMARK    1  A    between atoms: C1_1  and  C2_2
REMARK    2  A    between atoms: C5_5  and  C28_34
REMARK    3  A    between atoms: C9_11  and  C27_33
REMARK    4  A    between atoms: C14_18  and  C26_32
REMARK    5  A    between atoms: C18_23  and  C25_31
REMARK    6  A    between atoms: C22_28  and  C23_29
REMARK    7  A    between atoms: C22_28  and  C24_30
REMARK    8  A    between atoms: C28_34  and  C29_35
REMARK    9  A    between atoms: C28_34  and  C30_36
REMARK   10  A    between atoms: C28_34  and  O2_37
REMARK                            x       y       z     vdW  Elec       q    Type
REMARK                         _______ _______ _______ _____ _____    ______ ____
ROOT
ATOM      1  C   UNL     1      44.877  20.379  22.505  0.00  0.00    +0.029 C 
ATOM      2  C   UNL     1      44.741  20.376  20.978  0.00  0.00    -0.042 C 
ATOM      3  C   UNL     1      44.523  21.837  20.460  0.00  0.00    +0.006 C 
ATOM      4  C   UNL     1      43.851  21.646  19.085  0.00  0.00    +0.003 C 
ATOM      5  C   UNL     1      43.072  20.320  19.173  0.00  0.00    -0.030 C 
ATOM     11  C   UNL     1      45.964  19.849  20.236  0.00  0.00    +0.010 C 
ATOM     12  C   UNL     1      47.249  20.450  20.805  0.00  0.00    +0.005 C 
ATOM     13  C   UNL     1      48.431  20.055  19.907  0.00  0.00    +0.006 C 
ATOM     14  C   UNL     1      48.525  18.528  19.876  0.00  0.00    +0.009 C 
ATOM     15  C   UNL     1      47.262  17.934  19.276  0.00  0.00    -0.023 C 
ATOM     16  C   UNL     1      46.991  18.456  17.858  0.00  0.00    +0.017 C 
ATOM     17  C   UNL     1      47.355  16.412  19.198  0.00  0.00    +0.011 C 
ATOM     18  C   UNL     1      48.657  15.944  18.565  0.00  0.00    +0.016 C 
ATOM     19  C   UNL     1      49.913  16.544  19.187  0.00  0.00    +0.006 C 
ATOM     20  C   UNL     1      50.370  15.798  20.423  0.00  0.00    -0.093 C 
ATOM     21  C   UNL     1      49.225  15.384  21.349  0.00  0.00    +0.056 C 
ATOM     22  C   UNL     1      51.094  14.507  19.975  0.00  0.00    +0.040 C 
ATOM     23  C   UNL     1      51.363  16.596  21.241  0.00  0.00    +0.370 C 
ATOM     24  O   UNL     1      52.335  16.071  21.724  0.00  0.00    -0.452 OA
ATOM     25  C   UNL     1      51.094  18.073  21.433  0.00  0.00    +0.014 C 
ATOM     26  C   UNL     1      51.011  18.666  20.028  0.00  0.00    +0.035 C 
ATOM     27  C   UNL     1      49.829  18.057  19.259  0.00  0.00    -0.036 C 
ATOM     28  C   UNL     1      49.997  18.605  17.824  0.00  0.00    +0.021 C 
ATOM     29  C   UNL     1      46.057  18.333  20.158  0.00  0.00    -0.029 C 
ATOM     30  C   UNL     1      46.234  17.723  21.554  0.00  0.00    +0.019 C 
ATOM     31  C   UNL     1      44.769  17.777  19.542  0.00  0.00    +0.015 C 
ATOM     32  C   UNL     1      43.578  18.178  20.412  0.00  0.00    +0.004 C 
ATOM     33  C   UNL     1      43.451  19.682  20.514  0.00  0.00    +0.007 C 
ENDROOT
BRANCH   5   6
ATOM      6  C   UNL     1      41.566  20.593  19.127  0.00  0.00    +0.133 C 
ATOM      9  C   UNL     1      40.915  19.690  18.076  0.00  0.00    +0.053 C 
ATOM     10  C   UNL     1      41.324  22.058  18.760  0.00  0.00    +0.004 C 
BRANCH   6   7
ATOM      7  O   UNL     1      40.994  20.321  20.408  0.00  0.00    -0.556 OA
ATOM      8  H   UNL     1      40.232  20.877  20.624  0.00  0.00    +0.372 HD
ENDBRANCH   6   7
ENDBRANCH   5   6
TORSDOF 2
ENDMDL
MODEL 5
REMARK VINA RESULT:      -6.3      1.278      7.692
REMARK  Name = ZINC95486180
REMARK  10 active torsions:
REMARK  status: ('A' for Active; 'I' for Inactive)
REMARK    1  A    between atoms: C1_1  and  C2_2
REMARK    2  A    between atoms: C5_5  and  C28_34
REMARK    3  A    between atoms: C9_11  and  C27_33
REMARK    4  A    between atoms: C14_18  and  C26_32
REMARK    5  A    between atoms: C18_23  and  C25_31
REMARK    6  A    between atoms: C22_28  and  C23_29
REMARK    7  A    between atoms: C22_28  and  C24_30
REMARK    8  A    between atoms: C28_34  and  C29_35
REMARK    9  A    between atoms: C28_34  and  C30_36
REMARK   10  A    between atoms: C28_34  and  O2_37
REMARK                            x       y       z     vdW  Elec       q    Type
REMARK                         _______ _______ _______ _____ _____    ______ ____
ROOT
ATOM      1  C   UNL     1      49.980  16.413  18.664  0.00  0.00    +0.029 C 
ATOM      2  C   UNL     1      48.662  15.667  18.902  0.00  0.00    -0.042 C 
ATOM      3  C   UNL     1      48.912  14.423  19.820  0.00  0.00    +0.006 C 
ATOM      4  C   UNL     1      47.722  13.492  19.515  0.00  0.00    +0.003 C 
ATOM      5  C   UNL     1      47.307  13.794  18.063  0.00  0.00    -0.030 C 
ATOM     11  C   UNL     1      47.587  16.490  19.600  0.00  0.00    +0.010 C 
ATOM     12  C   UNL     1      48.168  17.246  20.795  0.00  0.00    +0.005 C 
ATOM     13  C   UNL     1      47.023  17.897  21.586  0.00  0.00    +0.006 C 
ATOM     14  C   UNL     1      46.280  18.859  20.657  0.00  0.00    +0.009 C 
ATOM     15  C   UNL     1      45.672  18.101  19.489  0.00  0.00    -0.023 C 
ATOM     16  C   UNL     1      44.712  16.996  19.952  0.00  0.00    +0.017 C 
ATOM     17  C   UNL     1      44.890  19.040  18.574  0.00  0.00    +0.011 C 
ATOM     18  C   UNL     1      43.926  19.929  19.344  0.00  0.00    +0.016 C 
ATOM     19  C   UNL     1      44.558  20.688  20.506  0.00  0.00    +0.006 C 
ATOM     20  C   UNL     1      45.229  21.974  20.071  0.00  0.00    -0.093 C 
ATOM     21  C   UNL     1      46.020  21.844  18.769  0.00  0.00    +0.056 C 
ATOM     22  C   UNL     1      44.134  23.043  19.843  0.00  0.00    +0.040 C 
ATOM     23  C   UNL     1      46.161  22.521  21.129  0.00  0.00    +0.370 C 
ATOM     24  O   UNL     1      46.197  23.701  21.378  0.00  0.00    -0.452 OA
ATOM     25  C   UNL     1      47.048  21.539  21.864  0.00  0.00    +0.014 C 
ATOM     26  C   UNL     1      46.103  20.525  22.505  0.00  0.00    +0.035 C 
ATOM     27  C   UNL     1      45.328  19.758  21.423  0.00  0.00    -0.036 C 
ATOM     28  C   UNL     1      44.298  18.928  22.223  0.00  0.00    +0.021 C 
ATOM     29  C   UNL     1      46.809  17.426  18.689  0.00  0.00    -0.029 C 
ATOM     30  C   UNL     1      47.723  18.509  18.106  0.00  0.00    +0.019 C 
ATOM     31  C   UNL     1      46.207  16.621  17.532  0.00  0.00    +0.015 C 
ATOM     32  C   UNL     1      47.332  15.949  16.745  0.00  0.00    +0.004 C 
ATOM     33  C   UNL     1      48.131  15.008  17.620  0.00  0.00    +0.007 C 
ENDROOT
BRANCH   5   6
ATOM      6  C   UNL     1      47.619  12.592  17.167  0.00  0.00    +0.133 C 
ATOM      9  C   UNL     1      47.597  11.311  18.004  0.00  0.00    +0.053 C 
ATOM     10  C   UNL     1      49.004  12.768  16.542  0.00  0.00    +0.004 C 
BRANCH   6   7
ATOM      7  O   UNL     1      46.637  12.502  16.133  0.00  0.00    -0.556 OA
ATOM      8  H   UNL     1      46.904  12.914  15.299  0.00  0.00    +0.372 HD
ENDBRANCH   6   7
ENDBRANCH   5   6
TORSDOF 2
ENDMDL
MODEL 6
REMARK VINA RESULT:      -6.3      2.821      7.756
REMARK  Name = ZINC95486180
REMARK  10 active torsions:
REMARK  status: ('A' for Active; 'I' for Inactive)
REMARK    1  A    between atoms: C1_1  and  C2_2
REMARK    2  A    between atoms: C5_5  and  C28_34
REMARK    3  A    between atoms: C9_11  and  C27_33
REMARK    4  A    between atoms: C14_18  and  C26_32
REMARK    5  A    between atoms: C18_23  and  C25_31
REMARK    6  A    between atoms: C22_28  and  C23_29
REMARK    7  A    between atoms: C22_28  and  C24_30
REMARK    8  A    between atoms: C28_34  and  C29_35
REMARK    9  A    between atoms: C28_34  and  C30_36
REMARK   10  A    between atoms: C28_34  and  O2_37
REMARK                            x       y       z     vdW  Elec       q    Type
REMARK                         _______ _______ _______ _____ _____    ______ ____
ROOT
ATOM      1  C   UNL     1      48.564  13.442  20.659  0.00  0.00    +0.029 C 
ATOM      2  C   UNL     1      47.789  14.004  19.462  0.00  0.00    -0.042 C 
ATOM      3  C   UNL     1      46.275  13.628  19.584  0.00  0.00    +0.006 C 
ATOM      4  C   UNL     1      45.752  13.722  18.136  0.00  0.00    +0.003 C 
ATOM      5  C   UNL     1      46.954  13.404  17.228  0.00  0.00    -0.030 C 
ATOM     11  C   UNL     1      47.833  15.523  19.338  0.00  0.00    +0.010 C 
ATOM     12  C   UNL     1      47.576  16.189  20.690  0.00  0.00    +0.005 C 
ATOM     13  C   UNL     1      47.428  17.704  20.486  0.00  0.00    +0.006 C 
ATOM     14  C   UNL     1      48.721  18.237  19.866  0.00  0.00    +0.009 C 
ATOM     15  C   UNL     1      48.955  17.601  18.506  0.00  0.00    -0.023 C 
ATOM     16  C   UNL     1      47.788  17.850  17.541  0.00  0.00    +0.017 C 
ATOM     17  C   UNL     1      50.220  18.154  17.853  0.00  0.00    +0.011 C 
ATOM     18  C   UNL     1      50.267  19.674  17.877  0.00  0.00    +0.016 C 
ATOM     19  C   UNL     1      50.039  20.292  19.252  0.00  0.00    +0.006 C 
ATOM     20  C   UNL     1      51.301  20.346  20.088  0.00  0.00    -0.093 C 
ATOM     21  C   UNL     1      52.158  19.084  19.989  0.00  0.00    +0.056 C 
ATOM     22  C   UNL     1      52.163  21.531  19.593  0.00  0.00    +0.040 C 
ATOM     23  C   UNL     1      51.010  20.597  21.551  0.00  0.00    +0.370 C 
ATOM     24  O   UNL     1      51.685  21.360  22.199  0.00  0.00    -0.452 OA
ATOM     25  C   UNL     1      49.846  19.859  22.176  0.00  0.00    +0.014 C 
ATOM     26  C   UNL     1      48.620  20.241  21.349  0.00  0.00    +0.035 C 
ATOM     27  C   UNL     1      48.778  19.753  19.901  0.00  0.00    -0.036 C 
ATOM     28  C   UNL     1      47.569  20.374  19.166  0.00  0.00    +0.021 C 
ATOM     29  C   UNL     1      49.093  16.073  18.689  0.00  0.00    -0.029 C 
ATOM     30  C   UNL     1      50.326  15.780  19.551  0.00  0.00    +0.019 C 
ATOM     31  C   UNL     1      49.286  15.413  17.319  0.00  0.00    +0.015 C 
ATOM     32  C   UNL     1      49.416  13.900  17.501  0.00  0.00    +0.004 C 
ATOM     33  C   UNL     1      48.179  13.315  18.146  0.00  0.00    +0.007 C 
ENDROOT
BRANCH   5   6
ATOM      6  C   UNL     1      46.734  12.067  16.515  0.00  0.00    +0.133 C 
ATOM      9  C   UNL     1      47.282  10.929  17.380  0.00  0.00    +0.053 C 
ATOM     10  C   UNL     1      47.464  12.080  15.170  0.00  0.00    +0.004 C 
BRANCH   6   7
ATOM      7  O   UNL     1      45.336  11.869  16.297  0.00  0.00    -0.556 OA
ATOM      8  H   UNL     1      45.061  10.941  16.326  0.00  0.00    +0.372 HD
ENDBRANCH   6   7
ENDBRANCH   5   6
TORSDOF 2
ENDMDL
MODEL 7
REMARK VINA RESULT:      -6.3      1.490      3.102
REMARK  Name = ZINC95486180
REMARK  10 active torsions:
REMARK  status: ('A' for Active; 'I' for Inactive)
REMARK    1  A    between atoms: C1_1  and  C2_2
REMARK    2  A    between atoms: C5_5  and  C28_34
REMARK    3  A    between atoms: C9_11  and  C27_33
REMARK    4  A    between atoms: C14_18  and  C26_32
REMARK    5  A    between atoms: C18_23  and  C25_31
REMARK    6  A    between atoms: C22_28  and  C23_29
REMARK    7  A    between atoms: C22_28  and  C24_30
REMARK    8  A    between atoms: C28_34  and  C29_35
REMARK    9  A    between atoms: C28_34  and  C30_36
REMARK   10  A    between atoms: C28_34  and  O2_37
REMARK                            x       y       z     vdW  Elec       q    Type
REMARK                         _______ _______ _______ _____ _____    ______ ____
ROOT
ATOM      1  C   UNL     1      48.480  20.412  19.277  0.00  0.00    +0.029 C 
ATOM      2  C   UNL     1      46.992  20.201  19.579  0.00  0.00    -0.042 C 
ATOM      3  C   UNL     1      46.123  20.815  18.430  0.00  0.00    +0.006 C 
ATOM      4  C   UNL     1      44.751  21.055  19.091  0.00  0.00    +0.003 C 
ATOM      5  C   UNL     1      45.035  21.301  20.584  0.00  0.00    -0.030 C 
ATOM     11  C   UNL     1      46.569  18.741  19.686  0.00  0.00    +0.010 C 
ATOM     12  C   UNL     1      47.155  17.917  18.540  0.00  0.00    +0.005 C 
ATOM     13  C   UNL     1      46.547  16.507  18.569  0.00  0.00    +0.006 C 
ATOM     14  C   UNL     1      46.885  15.863  19.915  0.00  0.00    +0.009 C 
ATOM     15  C   UNL     1      46.270  16.663  21.052  0.00  0.00    -0.023 C 
ATOM     16  C   UNL     1      44.746  16.788  20.916  0.00  0.00    +0.017 C 
ATOM     17  C   UNL     1      46.561  16.010  22.401  0.00  0.00    +0.011 C 
ATOM     18  C   UNL     1      46.242  14.523  22.406  0.00  0.00    +0.016 C 
ATOM     19  C   UNL     1      46.875  13.737  21.263  0.00  0.00    +0.006 C 
ATOM     20  C   UNL     1      48.302  13.323  21.556  0.00  0.00    -0.093 C 
ATOM     21  C   UNL     1      49.130  14.412  22.238  0.00  0.00    +0.056 C 
ATOM     22  C   UNL     1      48.271  12.102  22.505  0.00  0.00    +0.040 C 
ATOM     23  C   UNL     1      49.041  12.889  20.309  0.00  0.00    +0.370 C 
ATOM     24  O   UNL     1      49.763  11.923  20.317  0.00  0.00    -0.452 OA
ATOM     25  C   UNL     1      48.845  13.709  19.052  0.00  0.00    +0.014 C 
ATOM     26  C   UNL     1      47.343  13.692  18.775  0.00  0.00    +0.035 C 
ATOM     27  C   UNL     1      46.580  14.377  19.920  0.00  0.00    -0.036 C 
ATOM     28  C   UNL     1      45.095  14.109  19.588  0.00  0.00    +0.021 C 
ATOM     29  C   UNL     1      46.860  18.091  21.030  0.00  0.00    -0.029 C 
ATOM     30  C   UNL     1      48.369  18.014  21.287  0.00  0.00    +0.019 C 
ATOM     31  C   UNL     1      46.217  18.923  22.144  0.00  0.00    +0.015 C 
ATOM     32  C   UNL     1      46.796  20.338  22.118  0.00  0.00    +0.004 C 
ATOM     33  C   UNL     1      46.527  21.019  20.794  0.00  0.00    +0.007 C 
ENDROOT
BRANCH   5   6
ATOM      6  C   UNL     1      44.719  22.755  20.947  0.00  0.00    +0.133 C 
ATOM      9  C   UNL     1      43.803  23.360  19.880  0.00  0.00    +0.053 C 
ATOM     10  C   UNL     1      46.021  23.558  21.013  0.00  0.00    +0.004 C 
BRANCH   6   7
ATOM      7  O   UNL     1      44.066  22.798  22.216  0.00  0.00    -0.556 OA
ATOM      8  H   UNL     1      43.768  23.682  22.475  0.00  0.00    +0.372 HD
ENDBRANCH   6   7
ENDBRANCH   5   6
TORSDOF 2
ENDMDL
MODEL 8
REMARK VINA RESULT:      -6.1      2.159      4.122
REMARK  Name = ZINC95486180
REMARK  10 active torsions:
REMARK  status: ('A' for Active; 'I' for Inactive)
REMARK    1  A    between atoms: C1_1  and  C2_2
REMARK    2  A    between atoms: C5_5  and  C28_34
REMARK    3  A    between atoms: C9_11  and  C27_33
REMARK    4  A    between atoms: C14_18  and  C26_32
REMARK    5  A    between atoms: C18_23  and  C25_31
REMARK    6  A    between atoms: C22_28  and  C23_29
REMARK    7  A    between atoms: C22_28  and  C24_30
REMARK    8  A    between atoms: C28_34  and  C29_35
REMARK    9  A    between atoms: C28_34  and  C30_36
REMARK   10  A    between atoms: C28_34  and  O2_37
REMARK                            x       y       z     vdW  Elec       q    Type
REMARK                         _______ _______ _______ _____ _____    ______ ____
ROOT
ATOM      1  C   UNL     1      47.766  19.984  20.351  0.00  0.00    +0.029 C 
ATOM      2  C   UNL     1      46.610  19.235  19.677  0.00  0.00    -0.042 C 
ATOM      3  C   UNL     1      45.977  20.129  18.558  0.00  0.00    +0.006 C 
ATOM      4  C   UNL     1      44.559  19.552  18.381  0.00  0.00    +0.003 C 
ATOM      5  C   UNL     1      44.168  18.957  19.746  0.00  0.00    -0.030 C 
ATOM     11  C   UNL     1      47.014  17.935  18.992  0.00  0.00    +0.010 C 
ATOM     12  C   UNL     1      48.280  18.127  18.159  0.00  0.00    +0.005 C 
ATOM     13  C   UNL     1      48.537  16.858  17.331  0.00  0.00    +0.006 C 
ATOM     14  C   UNL     1      48.705  15.680  18.292  0.00  0.00    +0.009 C 
ATOM     15  C   UNL     1      47.432  15.467  19.094  0.00  0.00    -0.023 C 
ATOM     16  C   UNL     1      46.214  15.220  18.194  0.00  0.00    +0.017 C 
ATOM     17  C   UNL     1      47.567  14.268  20.029  0.00  0.00    +0.011 C 
ATOM     18  C   UNL     1      48.099  13.034  19.315  0.00  0.00    +0.016 C 
ATOM     19  C   UNL     1      49.381  13.266  18.524  0.00  0.00    +0.006 C 
ATOM     20  C   UNL     1      50.625  13.174  19.383  0.00  0.00    -0.093 C 
ATOM     21  C   UNL     1      50.479  13.846  20.748  0.00  0.00    +0.056 C 
ATOM     22  C   UNL     1      50.936  11.680  19.633  0.00  0.00    +0.040 C 
ATOM     23  C   UNL     1      51.839  13.766  18.700  0.00  0.00    +0.370 C 
ATOM     24  O   UNL     1      52.913  13.220  18.755  0.00  0.00    -0.452 OA
ATOM     25  C   UNL     1      51.661  15.068  17.948  0.00  0.00    +0.014 C 
ATOM     26  C   UNL     1      50.580  14.799  16.903  0.00  0.00    +0.035 C 
ATOM     27  C   UNL     1      49.249  14.452  17.587  0.00  0.00    -0.036 C 
ATOM     28  C   UNL     1      48.331  14.027  16.418  0.00  0.00    +0.021 C 
ATOM     29  C   UNL     1      47.149  16.740  19.924  0.00  0.00    -0.029 C 
ATOM     30  C   UNL     1      48.291  16.951  20.924  0.00  0.00    +0.019 C 
ATOM     31  C   UNL     1      45.843  16.557  20.705  0.00  0.00    +0.015 C 
ATOM     32  C   UNL     1      45.561  17.819  21.520  0.00  0.00    +0.004 C 
ATOM     33  C   UNL     1      45.420  19.033  20.627  0.00  0.00    +0.007 C 
ENDROOT
BRANCH   5   6
ATOM      6  C   UNL     1      43.035  19.777  20.371  0.00  0.00    +0.133 C 
ATOM      9  C   UNL     1      42.127  18.854  21.187  0.00  0.00    +0.053 C 
ATOM     10  C   UNL     1      42.218  20.445  19.263  0.00  0.00    +0.004 C 
BRANCH   6   7
ATOM      7  O   UNL     1      43.589  20.778  21.226  0.00  0.00    -0.556 OA
ATOM      8  H   UNL     1      43.311  20.703  22.150  0.00  0.00    +0.372 HD
ENDBRANCH   6   7
ENDBRANCH   5   6
TORSDOF 2
ENDMDL
MODEL 9
REMARK VINA RESULT:      -6.1      1.674      3.568
REMARK  Name = ZINC95486180
REMARK  10 active torsions:
REMARK  status: ('A' for Active; 'I' for Inactive)
REMARK    1  A    between atoms: C1_1  and  C2_2
REMARK    2  A    between atoms: C5_5  and  C28_34
REMARK    3  A    between atoms: C9_11  and  C27_33
REMARK    4  A    between atoms: C14_18  and  C26_32
REMARK    5  A    between atoms: C18_23  and  C25_31
REMARK    6  A    between atoms: C22_28  and  C23_29
REMARK    7  A    between atoms: C22_28  and  C24_30
REMARK    8  A    between atoms: C28_34  and  C29_35
REMARK    9  A    between atoms: C28_34  and  C30_36
REMARK   10  A    between atoms: C28_34  and  O2_37
REMARK                            x       y       z     vdW  Elec       q    Type
REMARK                         _______ _______ _______ _____ _____    ______ ____
ROOT
ATOM      1  C   UNL     1      49.438  20.070  20.374  0.00  0.00    +0.029 C 
ATOM      2  C   UNL     1      48.002  19.856  19.881  0.00  0.00    -0.042 C 
ATOM      3  C   UNL     1      47.631  20.954  18.829  0.00  0.00    +0.006 C 
ATOM      4  C   UNL     1      46.090  20.989  18.858  0.00  0.00    +0.003 C 
ATOM      5  C   UNL     1      45.681  20.563  20.280  0.00  0.00    -0.030 C 
ATOM     11  C   UNL     1      47.765  18.519  19.189  0.00  0.00    +0.010 C 
ATOM     12  C   UNL     1      48.881  18.215  18.191  0.00  0.00    +0.005 C 
ATOM     13  C   UNL     1      48.503  16.968  17.375  0.00  0.00    +0.006 C 
ATOM     14  C   UNL     1      48.319  15.797  18.341  0.00  0.00    +0.009 C 
ATOM     15  C   UNL     1      47.184  16.085  19.310  0.00  0.00    -0.023 C 
ATOM     16  C   UNL     1      45.859  16.361  18.586  0.00  0.00    +0.017 C 
ATOM     17  C   UNL     1      46.958  14.907  20.255  0.00  0.00    +0.011 C 
ATOM     18  C   UNL     1      46.859  13.582  19.516  0.00  0.00    +0.016 C 
ATOM     19  C   UNL     1      48.012  13.307  18.556  0.00  0.00    +0.006 C 
ATOM     20  C   UNL     1      49.220  12.711  19.245  0.00  0.00    -0.093 C 
ATOM     21  C   UNL     1      49.535  13.352  20.597  0.00  0.00    +0.056 C 
ATOM     22  C   UNL     1      48.947  11.209  19.497  0.00  0.00    +0.040 C 
ATOM     23  C   UNL     1      50.467  12.791  18.391  0.00  0.00    +0.370 C 
ATOM     24  O   UNL     1      51.235  11.863  18.321  0.00  0.00    -0.452 OA
ATOM     25  C   UNL     1      50.719  14.075  17.629  0.00  0.00    +0.014 C 
ATOM     26  C   UNL     1      49.491  14.280  16.744  0.00  0.00    +0.035 C 
ATOM     27  C   UNL     1      48.234  14.471  17.608  0.00  0.00    -0.036 C 
ATOM     28  C   UNL     1      47.077  14.472  16.585  0.00  0.00    +0.021 C 
ATOM     29  C   UNL     1      47.540  17.345  20.131  0.00  0.00    -0.029 C 
ATOM     30  C   UNL     1      48.795  17.064  20.965  0.00  0.00    +0.019 C 
ATOM     31  C   UNL     1      46.385  17.675  21.082  0.00  0.00    +0.015 C 
ATOM     32  C   UNL     1      46.735  18.925  21.889  0.00  0.00    +0.004 C 
ATOM     33  C   UNL     1      46.967  20.117  20.986  0.00  0.00    +0.007 C 
ENDROOT
BRANCH   5   6
ATOM      6  C   UNL     1      45.059  21.749  21.024  0.00  0.00    +0.133 C 
ATOM      9  C   UNL     1      44.366  22.675  20.021  0.00  0.00    +0.053 C 
ATOM     10  C   UNL     1      46.156  22.523  21.758  0.00  0.00    +0.004 C 
BRANCH   6   7
ATOM      7  O   UNL     1      44.101  21.268  21.968  0.00  0.00    -0.556 OA
ATOM      8  H   UNL     1      43.254  21.013  21.575  0.00  0.00    +0.372 HD
ENDBRANCH   6   7
ENDBRANCH   5   6
TORSDOF 2
ENDMDL
