MODEL 1
REMARK VINA RESULT:      -5.8      0.000      0.000
REMARK  Name = ZINC95485977
REMARK  19 active torsions:
REMARK  status: ('A' for Active; 'I' for Inactive)
REMARK    1  A    between atoms: C1_1  and  C2_2
REMARK    2  A    between atoms: C2_2  and  C31_37
REMARK    3  A    between atoms: C3_3  and  C4_4
REMARK    4  A    between atoms: C4_4  and  C5_5
REMARK    5  A    between atoms: C5_5  and  C6_6
REMARK    6  A    between atoms: C8_8  and  O6_36
REMARK    7  A    between atoms: C11_11  and  O1_12
REMARK    8  A    between atoms: C14_16  and  C25_30
REMARK    9  A    between atoms: C15_17  and  O5_29
REMARK   10  A    between atoms: C16_18  and  O4_28
REMARK   11  A    between atoms: C17_19  and  C19_22
REMARK   12  A    between atoms: C19_22  and  C20_23
REMARK   13  A    between atoms: C20_23  and  C21_24
REMARK   14  A    between atoms: C22_25  and  C23_26
REMARK   15  A    between atoms: C22_25  and  C24_27
REMARK   16  A    between atoms: C25_30  and  C26_31
REMARK   17  A    between atoms: C26_31  and  C27_32
REMARK   18  A    between atoms: C28_33  and  C29_34
REMARK   19  A    between atoms: C28_33  and  C30_35
REMARK                            x       y       z     vdW  Elec       q    Type
REMARK                         _______ _______ _______ _____ _____    ______ ____
ROOT
ATOM      7  C   UNL     1      46.124  20.561  19.049  0.00  0.00    -0.124 A 
ATOM      8  C   UNL     1      47.312  21.002  19.607  0.00  0.00    +0.088 A 
ATOM      9  C   UNL     1      48.453  20.224  19.550  0.00  0.00    +0.079 A 
ATOM     12  C   UNL     1      48.421  18.976  18.930  0.00  0.00    +0.143 A 
ATOM     13  C   UNL     1      47.214  18.528  18.370  0.00  0.00    -0.240 A 
ATOM     14  C   UNL     1      47.187  17.197  17.731  0.00  0.00    +0.442 A 
ATOM     15  C   UNL     1      48.356  16.333  17.988  0.00  0.00    -0.218 A 
ATOM     16  C   UNL     1      48.330  14.975  17.665  0.00  0.00    -0.002 A 
ATOM     23  C   UNL     1      49.435  14.191  17.925  0.00  0.00    +0.054 A 
ATOM     26  C   UNL     1      50.571  14.759  18.511  0.00  0.00    +0.154 A 
ATOM     29  C   UNL     1      50.601  16.103  18.829  0.00  0.00    -0.126 A 
ATOM     36  C   UNL     1      49.498  16.908  18.571  0.00  0.00    +0.168 A 
ATOM     37  O   UNL     1      46.257  16.835  17.033  0.00  0.00    -0.419 OA
ATOM     38  O   UNL     1      49.539  18.222  18.871  0.00  0.00    -0.208 OA
ATOM     39  C   UNL     1      46.065  19.323  18.431  0.00  0.00    +0.197 A 
ENDROOT
BRANCH   9  10
ATOM     10  O   UNL     1      49.611  20.677  20.103  0.00  0.00    -0.478 OA
ATOM     11  H   UNL     1      49.501  21.073  20.978  0.00  0.00    +0.392 HD
ENDBRANCH   9  10
BRANCH  23  24
ATOM     24  O   UNL     1      49.419  12.868  17.614  0.00  0.00    -0.473 OA
ATOM     25  H   UNL     1      48.711  12.370  18.046  0.00  0.00    +0.386 HD
ENDBRANCH  23  24
BRANCH  26  27
ATOM     27  O   UNL     1      51.653  13.981  18.768  0.00  0.00    -0.474 OA
ATOM     28  H   UNL     1      51.588  13.475  19.590  0.00  0.00    +0.396 HD
ENDBRANCH  26  27
BRANCH  39  40
ATOM     40  O   UNL     1      44.901  18.886  17.885  0.00  0.00    -0.472 OA
ATOM     41  H   UNL     1      44.119  19.078  18.420  0.00  0.00    +0.401 HD
ENDBRANCH  39  40
BRANCH   7   6
ATOM      6  C   UNL     1      44.892  21.426  19.118  0.00  0.00    +0.091 C 
BRANCH   6   5
ATOM      5  C   UNL     1      44.344  21.420  20.546  0.00  0.00    +0.060 C 
BRANCH   5   4
ATOM      1  C   UNL     1      44.952  19.314  22.315  0.00  0.00    +0.074 C 
ATOM      2  C   UNL     1      43.664  19.294  21.533  0.00  0.00    -0.126 C 
ATOM      3  C   UNL     1      42.701  18.146  21.698  0.00  0.00    +0.072 C 
ATOM      4  C   UNL     1      43.381  20.273  20.711  0.00  0.00    -0.064 C 
ENDBRANCH   5   4
ENDBRANCH   6   5
ENDBRANCH   7   6
BRANCH  16  17
ATOM     17  C   UNL     1      47.102  14.370  17.035  0.00  0.00    +0.098 C 
BRANCH  17  18
ATOM     18  C   UNL     1      46.435  13.418  18.030  0.00  0.00    +0.061 C 
BRANCH  18  19
ATOM     19  C   UNL     1      45.534  14.203  18.948  0.00  0.00    -0.047 C 
ATOM     20  C   UNL     1      45.847  14.340  20.213  0.00  0.00    -0.137 C 
ATOM     21  C   UNL     1      45.023  15.239  21.099  0.00  0.00    +0.072 C 
ATOM     22  C   UNL     1      47.031  13.602  20.781  0.00  0.00    +0.070 C 
ENDBRANCH  18  19
ENDBRANCH  17  18
ENDBRANCH  16  17
BRANCH  29  30
ATOM     30  C   UNL     1      51.833  16.699  19.461  0.00  0.00    +0.102 C 
BRANCH  30  31
ATOM     31  C   UNL     1      52.744  17.263  18.367  0.00  0.00    +0.054 C 
BRANCH  31  32
ATOM     32  C   UNL     1      52.602  18.762  18.321  0.00  0.00    -0.062 C 
ATOM     33  C   UNL     1      52.080  19.339  17.267  0.00  0.00    -0.124 C 
ATOM     34  C   UNL     1      51.810  20.822  17.275  0.00  0.00    +0.072 C 
ATOM     35  C   UNL     1      51.749  18.520  16.046  0.00  0.00    +0.072 C 
ENDBRANCH  31  32
ENDBRANCH  30  31
ENDBRANCH  29  30
TORSDOF 13
ENDMDL
MODEL 2
REMARK VINA RESULT:      -5.8      1.919      6.286
REMARK  Name = ZINC95485977
REMARK  19 active torsions:
REMARK  status: ('A' for Active; 'I' for Inactive)
REMARK    1  A    between atoms: C1_1  and  C2_2
REMARK    2  A    between atoms: C2_2  and  C31_37
REMARK    3  A    between atoms: C3_3  and  C4_4
REMARK    4  A    between atoms: C4_4  and  C5_5
REMARK    5  A    between atoms: C5_5  and  C6_6
REMARK    6  A    between atoms: C8_8  and  O6_36
REMARK    7  A    between atoms: C11_11  and  O1_12
REMARK    8  A    between atoms: C14_16  and  C25_30
REMARK    9  A    between atoms: C15_17  and  O5_29
REMARK   10  A    between atoms: C16_18  and  O4_28
REMARK   11  A    between atoms: C17_19  and  C19_22
REMARK   12  A    between atoms: C19_22  and  C20_23
REMARK   13  A    between atoms: C20_23  and  C21_24
REMARK   14  A    between atoms: C22_25  and  C23_26
REMARK   15  A    between atoms: C22_25  and  C24_27
REMARK   16  A    between atoms: C25_30  and  C26_31
REMARK   17  A    between atoms: C26_31  and  C27_32
REMARK   18  A    between atoms: C28_33  and  C29_34
REMARK   19  A    between atoms: C28_33  and  C30_35
REMARK                            x       y       z     vdW  Elec       q    Type
REMARK                         _______ _______ _______ _____ _____    ______ ____
ROOT
ATOM      7  C   UNL     1      48.901  13.494  15.841  0.00  0.00    -0.124 A 
ATOM      8  C   UNL     1      50.175  13.477  16.383  0.00  0.00    +0.088 A 
ATOM      9  C   UNL     1      50.564  14.428  17.308  0.00  0.00    +0.079 A 
ATOM     12  C   UNL     1      49.674  15.424  17.707  0.00  0.00    +0.143 A 
ATOM     13  C   UNL     1      48.385  15.443  17.152  0.00  0.00    -0.240 A 
ATOM     14  C   UNL     1      47.457  16.513  17.568  0.00  0.00    +0.442 A 
ATOM     15  C   UNL     1      48.058  17.636  18.314  0.00  0.00    -0.218 A 
ATOM     16  C   UNL     1      47.347  18.819  18.528  0.00  0.00    -0.002 A 
ATOM     23  C   UNL     1      47.939  19.853  19.223  0.00  0.00    +0.054 A 
ATOM     26  C   UNL     1      49.244  19.714  19.705  0.00  0.00    +0.154 A 
ATOM     29  C   UNL     1      49.949  18.543  19.497  0.00  0.00    -0.126 A 
ATOM     36  C   UNL     1      49.367  17.490  18.803  0.00  0.00    +0.168 A 
ATOM     37  O   UNL     1      46.267  16.471  17.311  0.00  0.00    -0.419 OA
ATOM     38  O   UNL     1      50.056  16.345  18.616  0.00  0.00    -0.208 OA
ATOM     39  C   UNL     1      48.000  14.476  16.216  0.00  0.00    +0.197 A 
ENDROOT
BRANCH   9  10
ATOM     10  O   UNL     1      51.820  14.390  17.831  0.00  0.00    -0.478 OA
ATOM     11  H   UNL     1      51.905  14.833  18.685  0.00  0.00    +0.392 HD
ENDBRANCH   9  10
BRANCH  23  24
ATOM     24  O   UNL     1      47.254  21.008  19.437  0.00  0.00    -0.473 OA
ATOM     25  H   UNL     1      47.228  21.598  18.670  0.00  0.00    +0.386 HD
ENDBRANCH  23  24
BRANCH  26  27
ATOM     27  O   UNL     1      49.822  20.737  20.384  0.00  0.00    -0.474 OA
ATOM     28  H   UNL     1      50.153  21.448  19.817  0.00  0.00    +0.396 HD
ENDBRANCH  26  27
BRANCH  39  40
ATOM     40  O   UNL     1      46.751  14.498  15.685  0.00  0.00    -0.472 OA
ATOM     41  H   UNL     1      46.455  13.645  15.339  0.00  0.00    +0.401 HD
ENDBRANCH  39  40
BRANCH   7   6
ATOM      6  C   UNL     1      48.496  12.447  14.836  0.00  0.00    +0.091 C 
BRANCH   6   5
ATOM      5  C   UNL     1      48.107  11.161  15.568  0.00  0.00    +0.060 C 
BRANCH   5   4
ATOM      1  C   UNL     1      45.904  11.581  17.273  0.00  0.00    +0.074 C 
ATOM      2  C   UNL     1      45.704  10.929  15.930  0.00  0.00    -0.126 C 
ATOM      3  C   UNL     1      44.325  10.502  15.499  0.00  0.00    +0.072 C 
ATOM      4  C   UNL     1      46.728  10.734  15.137  0.00  0.00    -0.064 C 
ENDBRANCH   5   4
ENDBRANCH   6   5
ENDBRANCH   7   6
BRANCH  16  17
ATOM     17  C   UNL     1      45.941  18.962  18.005  0.00  0.00    +0.098 C 
BRANCH  17  18
ATOM     18  C   UNL     1      44.971  19.097  19.180  0.00  0.00    +0.061 C 
BRANCH  18  19
ATOM     19  C   UNL     1      43.766  19.892  18.747  0.00  0.00    -0.047 C 
ATOM     20  C   UNL     1      42.665  19.851  19.456  0.00  0.00    -0.137 C 
ATOM     21  C   UNL     1      41.508  20.751  19.103  0.00  0.00    +0.072 C 
ATOM     22  C   UNL     1      42.555  18.906  20.625  0.00  0.00    +0.070 C 
ENDBRANCH  18  19
ENDBRANCH  17  18
ENDBRANCH  16  17
BRANCH  29  30
ATOM     30  C   UNL     1      51.356  18.410  20.023  0.00  0.00    +0.102 C 
BRANCH  30  31
ATOM     31  C   UNL     1      52.330  18.297  18.848  0.00  0.00    +0.054 C 
BRANCH  31  32
ATOM     32  C   UNL     1      52.374  19.608  18.106  0.00  0.00    -0.062 C 
ATOM     33  C   UNL     1      52.010  19.663  16.849  0.00  0.00    -0.124 C 
ATOM     34  C   UNL     1      51.919  20.993  16.147  0.00  0.00    +0.072 C 
ATOM     35  C   UNL     1      51.679  18.394  16.106  0.00  0.00    +0.072 C 
ENDBRANCH  31  32
ENDBRANCH  30  31
ENDBRANCH  29  30
TORSDOF 13
ENDMDL
MODEL 3
REMARK VINA RESULT:      -5.8      2.462      6.959
REMARK  Name = ZINC95485977
REMARK  19 active torsions:
REMARK  status: ('A' for Active; 'I' for Inactive)
REMARK    1  A    between atoms: C1_1  and  C2_2
REMARK    2  A    between atoms: C2_2  and  C31_37
REMARK    3  A    between atoms: C3_3  and  C4_4
REMARK    4  A    between atoms: C4_4  and  C5_5
REMARK    5  A    between atoms: C5_5  and  C6_6
REMARK    6  A    between atoms: C8_8  and  O6_36
REMARK    7  A    between atoms: C11_11  and  O1_12
REMARK    8  A    between atoms: C14_16  and  C25_30
REMARK    9  A    between atoms: C15_17  and  O5_29
REMARK   10  A    between atoms: C16_18  and  O4_28
REMARK   11  A    between atoms: C17_19  and  C19_22
REMARK   12  A    between atoms: C19_22  and  C20_23
REMARK   13  A    between atoms: C20_23  and  C21_24
REMARK   14  A    between atoms: C22_25  and  C23_26
REMARK   15  A    between atoms: C22_25  and  C24_27
REMARK   16  A    between atoms: C25_30  and  C26_31
REMARK   17  A    between atoms: C26_31  and  C27_32
REMARK   18  A    between atoms: C28_33  and  C29_34
REMARK   19  A    between atoms: C28_33  and  C30_35
REMARK                            x       y       z     vdW  Elec       q    Type
REMARK                         _______ _______ _______ _____ _____    ______ ____
ROOT
ATOM      7  C   UNL     1      47.045  14.375  19.406  0.00  0.00    -0.124 A 
ATOM      8  C   UNL     1      48.351  14.822  19.512  0.00  0.00    +0.088 A 
ATOM      9  C   UNL     1      48.627  16.106  19.945  0.00  0.00    +0.079 A 
ATOM     12  C   UNL     1      47.588  16.973  20.278  0.00  0.00    +0.143 A 
ATOM     13  C   UNL     1      46.264  16.520  20.163  0.00  0.00    -0.240 A 
ATOM     14  C   UNL     1      45.170  17.452  20.502  0.00  0.00    +0.442 A 
ATOM     15  C   UNL     1      45.554  18.869  20.656  0.00  0.00    -0.218 A 
ATOM     16  C   UNL     1      44.585  19.873  20.711  0.00  0.00    -0.002 A 
ATOM     23  C   UNL     1      44.976  21.189  20.847  0.00  0.00    +0.054 A 
ATOM     26  C   UNL     1      46.334  21.510  20.926  0.00  0.00    +0.154 A 
ATOM     29  C   UNL     1      47.295  20.518  20.874  0.00  0.00    -0.126 A 
ATOM     36  C   UNL     1      46.920  19.187  20.741  0.00  0.00    +0.168 A 
ATOM     37  O   UNL     1      44.021  17.074  20.646  0.00  0.00    -0.419 OA
ATOM     38  O   UNL     1      47.862  18.223  20.706  0.00  0.00    -0.208 OA
ATOM     39  C   UNL     1      45.994  15.218  19.726  0.00  0.00    +0.197 A 
ENDROOT
BRANCH   9  10
ATOM     10  O   UNL     1      49.918  16.524  20.044  0.00  0.00    -0.478 OA
ATOM     11  H   UNL     1      50.568  15.867  19.762  0.00  0.00    +0.392 HD
ENDBRANCH   9  10
BRANCH  23  24
ATOM     24  O   UNL     1      44.039  22.174  20.903  0.00  0.00    -0.473 OA
ATOM     25  H   UNL     1      43.147  21.882  20.672  0.00  0.00    +0.386 HD
ENDBRANCH  23  24
BRANCH  26  27
ATOM     27  O   UNL     1      46.711  22.808  21.056  0.00  0.00    -0.474 OA
ATOM     28  H   UNL     1      46.399  23.382  20.343  0.00  0.00    +0.396 HD
ENDBRANCH  26  27
BRANCH  39  40
ATOM     40  O   UNL     1      44.712  14.785  19.621  0.00  0.00    -0.472 OA
ATOM     41  H   UNL     1      44.110  15.179  20.266  0.00  0.00    +0.401 HD
ENDBRANCH  39  40
BRANCH   7   6
ATOM      6  C   UNL     1      46.765  12.971  18.937  0.00  0.00    +0.091 C 
BRANCH   6   5
ATOM      5  C   UNL     1      46.848  12.917  17.410  0.00  0.00    +0.060 C 
BRANCH   5   4
ATOM      1  C   UNL     1      47.371  11.495  15.035  0.00  0.00    +0.074 C 
ATOM      2  C   UNL     1      46.082  11.266  15.782  0.00  0.00    -0.126 C 
ATOM      3  C   UNL     1      45.074  10.277  15.258  0.00  0.00    +0.072 C 
ATOM      4  C   UNL     1      45.839  11.927  16.887  0.00  0.00    -0.064 C 
ENDBRANCH   5   4
ENDBRANCH   6   5
ENDBRANCH   7   6
BRANCH  16  17
ATOM     17  C   UNL     1      43.123  19.520  20.624  0.00  0.00    +0.098 C 
BRANCH  17  18
ATOM     18  C   UNL     1      42.640  19.697  19.184  0.00  0.00    +0.061 C 
BRANCH  18  19
ATOM     19  C   UNL     1      41.160  19.982  19.182  0.00  0.00    -0.047 C 
ATOM     20  C   UNL     1      40.725  21.187  18.909  0.00  0.00    -0.137 C 
ATOM     21  C   UNL     1      39.246  21.441  18.770  0.00  0.00    +0.072 C 
ATOM     22  C   UNL     1      41.704  22.320  18.732  0.00  0.00    +0.070 C 
ENDBRANCH  18  19
ENDBRANCH  17  18
ENDBRANCH  16  17
BRANCH  29  30
ATOM     30  C   UNL     1      48.756  20.882  20.960  0.00  0.00    +0.102 C 
BRANCH  30  31
ATOM     31  C   UNL     1      49.341  20.976  19.550  0.00  0.00    +0.054 C 
BRANCH  31  32
ATOM     32  C   UNL     1      50.500  20.021  19.422  0.00  0.00    -0.062 C 
ATOM     33  C   UNL     1      51.349  20.149  18.433  0.00  0.00    -0.124 C 
ATOM     34  C   UNL     1      52.583  19.286  18.383  0.00  0.00    +0.072 C 
ATOM     35  C   UNL     1      51.091  21.160  17.345  0.00  0.00    +0.072 C 
ENDBRANCH  31  32
ENDBRANCH  30  31
ENDBRANCH  29  30
TORSDOF 13
ENDMDL
MODEL 4
REMARK VINA RESULT:      -5.7      2.449      6.908
REMARK  Name = ZINC95485977
REMARK  19 active torsions:
REMARK  status: ('A' for Active; 'I' for Inactive)
REMARK    1  A    between atoms: C1_1  and  C2_2
REMARK    2  A    between atoms: C2_2  and  C31_37
REMARK    3  A    between atoms: C3_3  and  C4_4
REMARK    4  A    between atoms: C4_4  and  C5_5
REMARK    5  A    between atoms: C5_5  and  C6_6
REMARK    6  A    between atoms: C8_8  and  O6_36
REMARK    7  A    between atoms: C11_11  and  O1_12
REMARK    8  A    between atoms: C14_16  and  C25_30
REMARK    9  A    between atoms: C15_17  and  O5_29
REMARK   10  A    between atoms: C16_18  and  O4_28
REMARK   11  A    between atoms: C17_19  and  C19_22
REMARK   12  A    between atoms: C19_22  and  C20_23
REMARK   13  A    between atoms: C20_23  and  C21_24
REMARK   14  A    between atoms: C22_25  and  C23_26
REMARK   15  A    between atoms: C22_25  and  C24_27
REMARK   16  A    between atoms: C25_30  and  C26_31
REMARK   17  A    between atoms: C26_31  and  C27_32
REMARK   18  A    between atoms: C28_33  and  C29_34
REMARK   19  A    between atoms: C28_33  and  C30_35
REMARK                            x       y       z     vdW  Elec       q    Type
REMARK                         _______ _______ _______ _____ _____    ______ ____
ROOT
ATOM      7  C   UNL     1      49.025  13.606  16.155  0.00  0.00    -0.124 A 
ATOM      8  C   UNL     1      50.274  13.666  16.751  0.00  0.00    +0.088 A 
ATOM      9  C   UNL     1      50.579  14.663  17.660  0.00  0.00    +0.079 A 
ATOM     12  C   UNL     1      49.627  15.627  17.988  0.00  0.00    +0.143 A 
ATOM     13  C   UNL     1      48.364  15.568  17.378  0.00  0.00    -0.240 A 
ATOM     14  C   UNL     1      47.369  16.604  17.719  0.00  0.00    +0.442 A 
ATOM     15  C   UNL     1      47.884  17.778  18.452  0.00  0.00    -0.218 A 
ATOM     16  C   UNL     1      47.111  18.931  18.597  0.00  0.00    -0.002 A 
ATOM     23  C   UNL     1      47.624  20.014  19.281  0.00  0.00    +0.054 A 
ATOM     26  C   UNL     1      48.911  19.952  19.821  0.00  0.00    +0.154 A 
ATOM     29  C   UNL     1      49.679  18.811  19.682  0.00  0.00    -0.126 A 
ATOM     36  C   UNL     1      49.177  17.710  19.000  0.00  0.00    +0.168 A 
ATOM     37  O   UNL     1      46.195  16.498  17.414  0.00  0.00    -0.419 OA
ATOM     38  O   UNL     1      49.925  16.594  18.880  0.00  0.00    -0.208 OA
ATOM     39  C   UNL     1      48.065  14.555  16.460  0.00  0.00    +0.197 A 
ENDROOT
BRANCH   9  10
ATOM     10  O   UNL     1      51.811  14.702  18.235  0.00  0.00    -0.478 OA
ATOM     11  H   UNL     1      52.182  15.591  18.311  0.00  0.00    +0.392 HD
ENDBRANCH   9  10
BRANCH  23  24
ATOM     24  O   UNL     1      46.877  21.141  19.427  0.00  0.00    -0.473 OA
ATOM     25  H   UNL     1      45.923  20.981  19.450  0.00  0.00    +0.386 HD
ENDBRANCH  23  24
BRANCH  26  27
ATOM     27  O   UNL     1      49.411  21.023  20.489  0.00  0.00    -0.474 OA
ATOM     28  H   UNL     1      48.828  21.361  21.183  0.00  0.00    +0.396 HD
ENDBRANCH  26  27
BRANCH  39  40
ATOM     40  O   UNL     1      46.840  14.501  15.877  0.00  0.00    -0.472 OA
ATOM     41  H   UNL     1      46.245  13.848  16.271  0.00  0.00    +0.401 HD
ENDBRANCH  39  40
BRANCH   7   6
ATOM      6  C   UNL     1      48.713  12.510  15.170  0.00  0.00    +0.091 C 
BRANCH   6   5
ATOM      5  C   UNL     1      50.018  11.924  14.627  0.00  0.00    +0.060 C 
BRANCH   5   4
ATOM      1  C   UNL     1      52.076  13.617  13.713  0.00  0.00    +0.074 C 
ATOM      2  C   UNL     1      51.095  13.027  12.734  0.00  0.00    -0.126 C 
ATOM      3  C   UNL     1      51.215  13.342  11.265  0.00  0.00    +0.072 C 
ATOM      4  C   UNL     1      50.138  12.239  13.159  0.00  0.00    -0.064 C 
ENDBRANCH   5   4
ENDBRANCH   6   5
ENDBRANCH   7   6
BRANCH  16  17
ATOM     17  C   UNL     1      45.724  18.991  18.011  0.00  0.00    +0.098 C 
BRANCH  17  18
ATOM     18  C   UNL     1      44.697  19.095  19.140  0.00  0.00    +0.061 C 
BRANCH  18  19
ATOM     19  C   UNL     1      43.549  19.965  18.696  0.00  0.00    -0.047 C 
ATOM     20  C   UNL     1      42.437  19.985  19.387  0.00  0.00    -0.137 C 
ATOM     21  C   UNL     1      41.342  20.955  19.025  0.00  0.00    +0.072 C 
ATOM     22  C   UNL     1      42.251  19.037  20.545  0.00  0.00    +0.070 C 
ENDBRANCH  18  19
ENDBRANCH  17  18
ENDBRANCH  16  17
BRANCH  29  30
ATOM     30  C   UNL     1      51.066  18.762  20.271  0.00  0.00    +0.102 C 
BRANCH  30  31
ATOM     31  C   UNL     1      52.092  18.618  19.145  0.00  0.00    +0.054 C 
BRANCH  31  32
ATOM     32  C   UNL     1      52.114  19.880  18.322  0.00  0.00    -0.062 C 
ATOM     33  C   UNL     1      51.834  19.834  17.043  0.00  0.00    -0.124 C 
ATOM     34  C   UNL     1      51.718  21.110  16.250  0.00  0.00    +0.072 C 
ATOM     35  C   UNL     1      51.626  18.504  16.365  0.00  0.00    +0.072 C 
ENDBRANCH  31  32
ENDBRANCH  30  31
ENDBRANCH  29  30
TORSDOF 13
ENDMDL
MODEL 5
REMARK VINA RESULT:      -5.5      1.457      2.213
REMARK  Name = ZINC95485977
REMARK  19 active torsions:
REMARK  status: ('A' for Active; 'I' for Inactive)
REMARK    1  A    between atoms: C1_1  and  C2_2
REMARK    2  A    between atoms: C2_2  and  C31_37
REMARK    3  A    between atoms: C3_3  and  C4_4
REMARK    4  A    between atoms: C4_4  and  C5_5
REMARK    5  A    between atoms: C5_5  and  C6_6
REMARK    6  A    between atoms: C8_8  and  O6_36
REMARK    7  A    between atoms: C11_11  and  O1_12
REMARK    8  A    between atoms: C14_16  and  C25_30
REMARK    9  A    between atoms: C15_17  and  O5_29
REMARK   10  A    between atoms: C16_18  and  O4_28
REMARK   11  A    between atoms: C17_19  and  C19_22
REMARK   12  A    between atoms: C19_22  and  C20_23
REMARK   13  A    between atoms: C20_23  and  C21_24
REMARK   14  A    between atoms: C22_25  and  C23_26
REMARK   15  A    between atoms: C22_25  and  C24_27
REMARK   16  A    between atoms: C25_30  and  C26_31
REMARK   17  A    between atoms: C26_31  and  C27_32
REMARK   18  A    between atoms: C28_33  and  C29_34
REMARK   19  A    between atoms: C28_33  and  C30_35
REMARK                            x       y       z     vdW  Elec       q    Type
REMARK                         _______ _______ _______ _____ _____    ______ ____
ROOT
ATOM      7  C   UNL     1      45.704  19.988  20.707  0.00  0.00    -0.124 A 
ATOM      8  C   UNL     1      46.934  20.463  21.130  0.00  0.00    +0.088 A 
ATOM      9  C   UNL     1      48.108  19.959  20.600  0.00  0.00    +0.079 A 
ATOM     12  C   UNL     1      48.067  18.959  19.629  0.00  0.00    +0.143 A 
ATOM     13  C   UNL     1      46.819  18.475  19.207  0.00  0.00    -0.240 A 
ATOM     14  C   UNL     1      46.787  17.404  18.192  0.00  0.00    +0.442 A 
ATOM     15  C   UNL     1      48.074  16.734  17.919  0.00  0.00    -0.218 A 
ATOM     16  C   UNL     1      48.126  15.546  17.188  0.00  0.00    -0.002 A 
ATOM     23  C   UNL     1      49.343  14.940  16.957  0.00  0.00    +0.054 A 
ATOM     26  C   UNL     1      50.515  15.515  17.455  0.00  0.00    +0.154 A 
ATOM     29  C   UNL     1      50.468  16.693  18.178  0.00  0.00    -0.126 A 
ATOM     36  C   UNL     1      49.251  17.319  18.417  0.00  0.00    +0.168 A 
ATOM     37  O   UNL     1      45.762  17.091  17.614  0.00  0.00    -0.419 OA
ATOM     38  O   UNL     1      49.214  18.475  19.110  0.00  0.00    -0.208 OA
ATOM     39  C   UNL     1      45.637  18.992  19.749  0.00  0.00    +0.197 A 
ENDROOT
BRANCH   9  10
ATOM     10  O   UNL     1      49.307  20.442  21.027  0.00  0.00    -0.478 OA
ATOM     11  H   UNL     1      49.954  20.570  20.321  0.00  0.00    +0.392 HD
ENDBRANCH   9  10
BRANCH  23  24
ATOM     24  O   UNL     1      49.402  13.783  16.245  0.00  0.00    -0.473 OA
ATOM     25  H   UNL     1      49.860  13.865  15.397  0.00  0.00    +0.386 HD
ENDBRANCH  23  24
BRANCH  26  27
ATOM     27  O   UNL     1      51.709  14.911  17.227  0.00  0.00    -0.474 OA
ATOM     28  H   UNL     1      51.763  14.006  17.563  0.00  0.00    +0.396 HD
ENDBRANCH  26  27
BRANCH  39  40
ATOM     40  O   UNL     1      44.433  18.522  19.334  0.00  0.00    -0.472 OA
ATOM     41  H   UNL     1      43.782  19.214  19.150  0.00  0.00    +0.401 HD
ENDBRANCH  39  40
BRANCH   7   6
ATOM      6  C   UNL     1      44.437  20.553  21.295  0.00  0.00    +0.091 C 
BRANCH   6   5
ATOM      5  C   UNL     1      44.612  22.054  21.539  0.00  0.00    +0.060 C 
BRANCH   5   4
ATOM      1  C   UNL     1      45.921  24.471  20.923  0.00  0.00    +0.074 C 
ATOM      2  C   UNL     1      44.855  23.936  20.003  0.00  0.00    -0.126 C 
ATOM      3  C   UNL     1      44.489  24.694  18.753  0.00  0.00    +0.072 C 
ATOM      4  C   UNL     1      44.246  22.812  20.289  0.00  0.00    -0.064 C 
ENDBRANCH   5   4
ENDBRANCH   6   5
ENDBRANCH   7   6
BRANCH  16  17
ATOM     17  C   UNL     1      46.858  14.931  16.654  0.00  0.00    +0.098 C 
BRANCH  17  18
ATOM     18  C   UNL     1      46.591  13.606  17.372  0.00  0.00    +0.061 C 
BRANCH  18  19
ATOM     19  C   UNL     1      45.716  13.854  18.573  0.00  0.00    -0.047 C 
ATOM     20  C   UNL     1      46.209  13.733  19.781  0.00  0.00    -0.137 C 
ATOM     21  C   UNL     1      45.376  14.115  20.977  0.00  0.00    +0.072 C 
ATOM     22  C   UNL     1      47.610  13.212  19.974  0.00  0.00    +0.070 C 
ENDBRANCH  18  19
ENDBRANCH  17  18
ENDBRANCH  16  17
BRANCH  29  30
ATOM     30  C   UNL     1      51.742  17.300  18.709  0.00  0.00    +0.102 C 
BRANCH  30  31
ATOM     31  C   UNL     1      52.141  18.492  17.836  0.00  0.00    +0.054 C 
BRANCH  31  32
ATOM     32  C   UNL     1      52.681  19.595  18.709  0.00  0.00    -0.062 C 
ATOM     33  C   UNL     1      52.057  20.746  18.773  0.00  0.00    -0.124 C 
ATOM     34  C   UNL     1      52.514  21.798  19.749  0.00  0.00    +0.072 C 
ATOM     35  C   UNL     1      50.881  21.015  17.870  0.00  0.00    +0.072 C 
ENDBRANCH  31  32
ENDBRANCH  30  31
ENDBRANCH  29  30
TORSDOF 13
ENDMDL
MODEL 6
REMARK VINA RESULT:      -5.4      2.201      3.435
REMARK  Name = ZINC95485977
REMARK  19 active torsions:
REMARK  status: ('A' for Active; 'I' for Inactive)
REMARK    1  A    between atoms: C1_1  and  C2_2
REMARK    2  A    between atoms: C2_2  and  C31_37
REMARK    3  A    between atoms: C3_3  and  C4_4
REMARK    4  A    between atoms: C4_4  and  C5_5
REMARK    5  A    between atoms: C5_5  and  C6_6
REMARK    6  A    between atoms: C8_8  and  O6_36
REMARK    7  A    between atoms: C11_11  and  O1_12
REMARK    8  A    between atoms: C14_16  and  C25_30
REMARK    9  A    between atoms: C15_17  and  O5_29
REMARK   10  A    between atoms: C16_18  and  O4_28
REMARK   11  A    between atoms: C17_19  and  C19_22
REMARK   12  A    between atoms: C19_22  and  C20_23
REMARK   13  A    between atoms: C20_23  and  C21_24
REMARK   14  A    between atoms: C22_25  and  C23_26
REMARK   15  A    between atoms: C22_25  and  C24_27
REMARK   16  A    between atoms: C25_30  and  C26_31
REMARK   17  A    between atoms: C26_31  and  C27_32
REMARK   18  A    between atoms: C28_33  and  C29_34
REMARK   19  A    between atoms: C28_33  and  C30_35
REMARK                            x       y       z     vdW  Elec       q    Type
REMARK                         _______ _______ _______ _____ _____    ______ ____
ROOT
ATOM      7  C   UNL     1      44.585  18.091  20.080  0.00  0.00    -0.124 A 
ATOM      8  C   UNL     1      45.109  19.332  19.761  0.00  0.00    +0.088 A 
ATOM      9  C   UNL     1      46.266  19.441  19.011  0.00  0.00    +0.079 A 
ATOM     12  C   UNL     1      46.925  18.296  18.568  0.00  0.00    +0.143 A 
ATOM     13  C   UNL     1      46.395  17.038  18.898  0.00  0.00    -0.240 A 
ATOM     14  C   UNL     1      47.110  15.831  18.439  0.00  0.00    +0.442 A 
ATOM     15  C   UNL     1      48.474  16.048  17.917  0.00  0.00    -0.218 A 
ATOM     16  C   UNL     1      49.341  14.974  17.704  0.00  0.00    -0.002 A 
ATOM     23  C   UNL     1      50.612  15.210  17.223  0.00  0.00    +0.054 A 
ATOM     26  C   UNL     1      51.026  16.518  16.956  0.00  0.00    +0.154 A 
ATOM     29  C   UNL     1      50.170  17.583  17.164  0.00  0.00    -0.126 A 
ATOM     36  C   UNL     1      48.885  17.364  17.644  0.00  0.00    +0.168 A 
ATOM     37  O   UNL     1      46.605  14.724  18.486  0.00  0.00    -0.419 OA
ATOM     38  O   UNL     1      48.050  18.406  17.831  0.00  0.00    -0.208 OA
ATOM     39  C   UNL     1      45.223  16.938  19.656  0.00  0.00    +0.197 A 
ENDROOT
BRANCH   9  10
ATOM     10  O   UNL     1      46.763  20.671  18.706  0.00  0.00    -0.478 OA
ATOM     11  H   UNL     1      47.215  21.106  19.441  0.00  0.00    +0.392 HD
ENDBRANCH   9  10
BRANCH  23  24
ATOM     24  O   UNL     1      51.463  14.170  17.011  0.00  0.00    -0.473 OA
ATOM     25  H   UNL     1      51.537  13.563  17.761  0.00  0.00    +0.386 HD
ENDBRANCH  23  24
BRANCH  26  27
ATOM     27  O   UNL     1      52.281  16.743  16.487  0.00  0.00    -0.474 OA
ATOM     28  H   UNL     1      52.328  17.421  15.800  0.00  0.00    +0.396 HD
ENDBRANCH  26  27
BRANCH  39  40
ATOM     40  O   UNL     1      44.714  15.719  19.969  0.00  0.00    -0.472 OA
ATOM     41  H   UNL     1      44.279  15.685  20.832  0.00  0.00    +0.401 HD
ENDBRANCH  39  40
BRANCH   7   6
ATOM      6  C   UNL     1      43.321  17.995  20.895  0.00  0.00    +0.091 C 
BRANCH   6   5
ATOM      5  C   UNL     1      42.593  19.340  20.870  0.00  0.00    +0.060 C 
BRANCH   5   4
ATOM      1  C   UNL     1      42.204  21.522  19.131  0.00  0.00    +0.074 C 
ATOM      2  C   UNL     1      41.311  20.312  19.033  0.00  0.00    -0.126 C 
ATOM      3  C   UNL     1      40.211  20.270  18.006  0.00  0.00    +0.072 C 
ATOM      4  C   UNL     1      41.492  19.298  19.842  0.00  0.00    -0.064 C 
ENDBRANCH   5   4
ENDBRANCH   6   5
ENDBRANCH   7   6
BRANCH  16  17
ATOM     17  C   UNL     1      48.888  13.566  17.994  0.00  0.00    +0.098 C 
BRANCH  17  18
ATOM     18  C   UNL     1      48.797  12.779  16.686  0.00  0.00    +0.061 C 
BRANCH  18  19
ATOM     19  C   UNL     1      47.542  11.945  16.688  0.00  0.00    -0.047 C 
ATOM     20  C   UNL     1      46.981  11.601  15.556  0.00  0.00    -0.137 C 
ATOM     21  C   UNL     1      45.809  10.654  15.552  0.00  0.00    +0.072 C 
ATOM     22  C   UNL     1      47.509  12.152  14.255  0.00  0.00    +0.070 C 
ENDBRANCH  18  19
ENDBRANCH  17  18
ENDBRANCH  16  17
BRANCH  29  30
ATOM     30  C   UNL     1      50.633  18.988  16.871  0.00  0.00    +0.102 C 
BRANCH  30  31
ATOM     31  C   UNL     1      51.392  19.537  18.082  0.00  0.00    +0.054 C 
BRANCH  31  32
ATOM     32  C   UNL     1      50.490  20.456  18.864  0.00  0.00    -0.062 C 
ATOM     33  C   UNL     1      50.122  20.136  20.080  0.00  0.00    -0.124 C 
ATOM     34  C   UNL     1      49.337  21.116  20.913  0.00  0.00    +0.072 C 
ATOM     35  C   UNL     1      50.485  18.787  20.645  0.00  0.00    +0.072 C 
ENDBRANCH  31  32
ENDBRANCH  30  31
ENDBRANCH  29  30
TORSDOF 13
ENDMDL
MODEL 7
REMARK VINA RESULT:      -5.4      2.395      7.611
REMARK  Name = ZINC95485977
REMARK  19 active torsions:
REMARK  status: ('A' for Active; 'I' for Inactive)
REMARK    1  A    between atoms: C1_1  and  C2_2
REMARK    2  A    between atoms: C2_2  and  C31_37
REMARK    3  A    between atoms: C3_3  and  C4_4
REMARK    4  A    between atoms: C4_4  and  C5_5
REMARK    5  A    between atoms: C5_5  and  C6_6
REMARK    6  A    between atoms: C8_8  and  O6_36
REMARK    7  A    between atoms: C11_11  and  O1_12
REMARK    8  A    between atoms: C14_16  and  C25_30
REMARK    9  A    between atoms: C15_17  and  O5_29
REMARK   10  A    between atoms: C16_18  and  O4_28
REMARK   11  A    between atoms: C17_19  and  C19_22
REMARK   12  A    between atoms: C19_22  and  C20_23
REMARK   13  A    between atoms: C20_23  and  C21_24
REMARK   14  A    between atoms: C22_25  and  C23_26
REMARK   15  A    between atoms: C22_25  and  C24_27
REMARK   16  A    between atoms: C25_30  and  C26_31
REMARK   17  A    between atoms: C26_31  and  C27_32
REMARK   18  A    between atoms: C28_33  and  C29_34
REMARK   19  A    between atoms: C28_33  and  C30_35
REMARK                            x       y       z     vdW  Elec       q    Type
REMARK                         _______ _______ _______ _____ _____    ______ ____
ROOT
ATOM      7  C   UNL     1      50.229  19.528  20.311  0.00  0.00    -0.124 A 
ATOM      8  C   UNL     1      50.234  18.411  21.129  0.00  0.00    +0.088 A 
ATOM      9  C   UNL     1      49.058  17.750  21.434  0.00  0.00    +0.079 A 
ATOM     12  C   UNL     1      47.844  18.206  20.921  0.00  0.00    +0.143 A 
ATOM     13  C   UNL     1      47.841  19.343  20.097  0.00  0.00    -0.240 A 
ATOM     14  C   UNL     1      46.548  19.827  19.574  0.00  0.00    +0.442 A 
ATOM     15  C   UNL     1      45.341  19.246  20.194  0.00  0.00    -0.218 A 
ATOM     16  C   UNL     1      44.081  19.806  19.978  0.00  0.00    -0.002 A 
ATOM     23  C   UNL     1      42.973  19.245  20.578  0.00  0.00    +0.054 A 
ATOM     26  C   UNL     1      43.117  18.123  21.398  0.00  0.00    +0.154 A 
ATOM     29  C   UNL     1      44.363  17.564  21.613  0.00  0.00    -0.126 A 
ATOM     36  C   UNL     1      45.489  18.114  21.014  0.00  0.00    +0.168 A 
ATOM     37  O   UNL     1      46.481  20.656  18.684  0.00  0.00    -0.419 OA
ATOM     38  O   UNL     1      46.700  17.555  21.215  0.00  0.00    -0.208 OA
ATOM     39  C   UNL     1      49.036  20.004  19.793  0.00  0.00    +0.197 A 
ENDROOT
BRANCH   9  10
ATOM     10  O   UNL     1      49.086  16.653  22.238  0.00  0.00    -0.478 OA
ATOM     11  H   UNL     1      48.422  15.986  22.017  0.00  0.00    +0.392 HD
ENDBRANCH   9  10
BRANCH  23  24
ATOM     24  O   UNL     1      41.742  19.784  20.372  0.00  0.00    -0.473 OA
ATOM     25  H   UNL     1      41.745  20.746  20.269  0.00  0.00    +0.386 HD
ENDBRANCH  23  24
BRANCH  26  27
ATOM     27  O   UNL     1      42.023  17.578  21.989  0.00  0.00    -0.474 OA
ATOM     28  H   UNL     1      41.348  18.224  22.240  0.00  0.00    +0.396 HD
ENDBRANCH  26  27
BRANCH  39  40
ATOM     40  O   UNL     1      49.026  21.100  18.993  0.00  0.00    -0.472 OA
ATOM     41  H   UNL     1      48.198  21.597  19.018  0.00  0.00    +0.401 HD
ENDBRANCH  39  40
BRANCH   7   6
ATOM      6  C   UNL     1      51.522  20.231  19.988  0.00  0.00    +0.091 C 
BRANCH   6   5
ATOM      5  C   UNL     1      52.392  19.324  19.115  0.00  0.00    +0.060 C 
BRANCH   5   4
ATOM      1  C   UNL     1      50.917  18.135  17.031  0.00  0.00    +0.074 C 
ATOM      2  C   UNL     1      51.781  19.337  16.752  0.00  0.00    -0.126 C 
ATOM      3  C   UNL     1      51.857  19.903  15.357  0.00  0.00    +0.072 C 
ATOM      4  C   UNL     1      52.467  19.890  17.721  0.00  0.00    -0.064 C 
ENDBRANCH   5   4
ENDBRANCH   6   5
ENDBRANCH   7   6
BRANCH  16  17
ATOM     17  C   UNL     1      43.933  21.017  19.092  0.00  0.00    +0.098 C 
BRANCH  17  18
ATOM     18  C   UNL     1      43.390  22.187  19.914  0.00  0.00    +0.061 C 
BRANCH  18  19
ATOM     19  C   UNL     1      44.529  22.870  20.627  0.00  0.00    -0.047 C 
ATOM     20  C   UNL     1      45.038  23.975  20.142  0.00  0.00    -0.137 C 
ATOM     21  C   UNL     1      46.079  24.733  20.924  0.00  0.00    +0.072 C 
ATOM     22  C   UNL     1      44.579  24.491  18.801  0.00  0.00    +0.070 C 
ENDBRANCH  18  19
ENDBRANCH  17  18
ENDBRANCH  16  17
BRANCH  29  30
ATOM     30  C   UNL     1      44.501  16.354  22.502  0.00  0.00    +0.102 C 
BRANCH  30  31
ATOM     31  C   UNL     1      44.423  15.085  21.650  0.00  0.00    +0.054 C 
BRANCH  31  32
ATOM     32  C   UNL     1      45.732  14.342  21.736  0.00  0.00    -0.062 C 
ATOM     33  C   UNL     1      46.451  14.153  20.657  0.00  0.00    -0.124 C 
ATOM     34  C   UNL     1      47.821  13.536  20.763  0.00  0.00    +0.072 C 
ATOM     35  C   UNL     1      45.908  14.556  19.310  0.00  0.00    +0.072 C 
ENDBRANCH  31  32
ENDBRANCH  30  31
ENDBRANCH  29  30
TORSDOF 13
ENDMDL
MODEL 8
REMARK VINA RESULT:      -5.2      1.531      1.953
REMARK  Name = ZINC95485977
REMARK  19 active torsions:
REMARK  status: ('A' for Active; 'I' for Inactive)
REMARK    1  A    between atoms: C1_1  and  C2_2
REMARK    2  A    between atoms: C2_2  and  C31_37
REMARK    3  A    between atoms: C3_3  and  C4_4
REMARK    4  A    between atoms: C4_4  and  C5_5
REMARK    5  A    between atoms: C5_5  and  C6_6
REMARK    6  A    between atoms: C8_8  and  O6_36
REMARK    7  A    between atoms: C11_11  and  O1_12
REMARK    8  A    between atoms: C14_16  and  C25_30
REMARK    9  A    between atoms: C15_17  and  O5_29
REMARK   10  A    between atoms: C16_18  and  O4_28
REMARK   11  A    between atoms: C17_19  and  C19_22
REMARK   12  A    between atoms: C19_22  and  C20_23
REMARK   13  A    between atoms: C20_23  and  C21_24
REMARK   14  A    between atoms: C22_25  and  C23_26
REMARK   15  A    between atoms: C22_25  and  C24_27
REMARK   16  A    between atoms: C25_30  and  C26_31
REMARK   17  A    between atoms: C26_31  and  C27_32
REMARK   18  A    between atoms: C28_33  and  C29_34
REMARK   19  A    between atoms: C28_33  and  C30_35
REMARK                            x       y       z     vdW  Elec       q    Type
REMARK                         _______ _______ _______ _____ _____    ______ ____
ROOT
ATOM      7  C   UNL     1      45.266  20.305  20.023  0.00  0.00    -0.124 A 
ATOM      8  C   UNL     1      46.339  20.976  20.584  0.00  0.00    +0.088 A 
ATOM      9  C   UNL     1      47.637  20.558  20.351  0.00  0.00    +0.079 A 
ATOM     12  C   UNL     1      47.881  19.448  19.545  0.00  0.00    +0.143 A 
ATOM     13  C   UNL     1      46.791  18.765  18.982  0.00  0.00    -0.240 A 
ATOM     14  C   UNL     1      47.061  17.580  18.145  0.00  0.00    +0.442 A 
ATOM     15  C   UNL     1      48.435  17.044  18.206  0.00  0.00    -0.218 A 
ATOM     16  C   UNL     1      48.742  15.789  17.676  0.00  0.00    -0.002 A 
ATOM     23  C   UNL     1      50.034  15.313  17.756  0.00  0.00    +0.054 A 
ATOM     26  C   UNL     1      51.026  16.086  18.367  0.00  0.00    +0.154 A 
ATOM     29  C   UNL     1      50.727  17.330  18.890  0.00  0.00    -0.126 A 
ATOM     36  C   UNL     1      49.431  17.826  18.815  0.00  0.00    +0.168 A 
ATOM     37  O   UNL     1      46.202  17.074  17.445  0.00  0.00    -0.419 OA
ATOM     38  O   UNL     1      49.149  19.047  19.314  0.00  0.00    -0.208 OA
ATOM     39  C   UNL     1      45.482  19.196  19.223  0.00  0.00    +0.197 A 
ENDROOT
BRANCH   9  10
ATOM     10  O   UNL     1      48.677  21.233  20.911  0.00  0.00    -0.478 OA
ATOM     11  H   UNL     1      48.602  21.350  21.867  0.00  0.00    +0.392 HD
ENDBRANCH   9  10
BRANCH  23  24
ATOM     24  O   UNL     1      50.342  14.092  17.242  0.00  0.00    -0.473 OA
ATOM     25  H   UNL     1      51.183  13.733  17.558  0.00  0.00    +0.386 HD
ENDBRANCH  23  24
BRANCH  26  27
ATOM     27  O   UNL     1      52.295  15.609  18.446  0.00  0.00    -0.474 OA
ATOM     28  H   UNL     1      52.671  15.348  17.594  0.00  0.00    +0.396 HD
ENDBRANCH  26  27
BRANCH  39  40
ATOM     40  O   UNL     1      44.433  18.534  18.673  0.00  0.00    -0.472 OA
ATOM     41  H   UNL     1      43.605  19.034  18.679  0.00  0.00    +0.401 HD
ENDBRANCH  39  40
BRANCH   7   6
ATOM      6  C   UNL     1      43.860  20.779  20.287  0.00  0.00    +0.091 C 
BRANCH   6   5
ATOM      5  C   UNL     1      43.404  21.687  19.143  0.00  0.00    +0.060 C 
BRANCH   5   4
ATOM      1  C   UNL     1      41.500  20.007  17.924  0.00  0.00    +0.074 C 
ATOM      2  C   UNL     1      41.048  21.201  18.724  0.00  0.00    -0.126 C 
ATOM      3  C   UNL     1      39.578  21.496  18.872  0.00  0.00    +0.072 C 
ATOM      4  C   UNL     1      41.934  21.982  19.291  0.00  0.00    -0.064 C 
ENDBRANCH   5   4
ENDBRANCH   6   5
ENDBRANCH   7   6
BRANCH  16  17
ATOM     17  C   UNL     1      47.667  14.961  17.020  0.00  0.00    +0.098 C 
BRANCH  17  18
ATOM     18  C   UNL     1      47.426  13.694  17.842  0.00  0.00    +0.061 C 
BRANCH  18  19
ATOM     19  C   UNL     1      46.967  14.075  19.227  0.00  0.00    -0.047 C 
ATOM     20  C   UNL     1      45.793  13.686  19.658  0.00  0.00    -0.137 C 
ATOM     21  C   UNL     1      45.391  13.946  21.087  0.00  0.00    +0.072 C 
ATOM     22  C   UNL     1      44.844  12.978  18.725  0.00  0.00    +0.070 C 
ENDBRANCH  18  19
ENDBRANCH  17  18
ENDBRANCH  16  17
BRANCH  29  30
ATOM     30  C   UNL     1      51.809  18.150  19.546  0.00  0.00    +0.102 C 
BRANCH  30  31
ATOM     31  C   UNL     1      52.799  18.630  18.482  0.00  0.00    +0.054 C 
BRANCH  31  32
ATOM     32  C   UNL     1      52.364  19.976  17.963  0.00  0.00    -0.062 C 
ATOM     33  C   UNL     1      51.921  20.094  16.736  0.00  0.00    -0.124 C 
ATOM     34  C   UNL     1      51.356  21.408  16.261  0.00  0.00    +0.072 C 
ATOM     35  C   UNL     1      51.976  18.915  15.799  0.00  0.00    +0.072 C 
ENDBRANCH  31  32
ENDBRANCH  30  31
ENDBRANCH  29  30
TORSDOF 13
ENDMDL
MODEL 9
REMARK VINA RESULT:      -5.2      1.785      2.676
REMARK  Name = ZINC95485977
REMARK  19 active torsions:
REMARK  status: ('A' for Active; 'I' for Inactive)
REMARK    1  A    between atoms: C1_1  and  C2_2
REMARK    2  A    between atoms: C2_2  and  C31_37
REMARK    3  A    between atoms: C3_3  and  C4_4
REMARK    4  A    between atoms: C4_4  and  C5_5
REMARK    5  A    between atoms: C5_5  and  C6_6
REMARK    6  A    between atoms: C8_8  and  O6_36
REMARK    7  A    between atoms: C11_11  and  O1_12
REMARK    8  A    between atoms: C14_16  and  C25_30
REMARK    9  A    between atoms: C15_17  and  O5_29
REMARK   10  A    between atoms: C16_18  and  O4_28
REMARK   11  A    between atoms: C17_19  and  C19_22
REMARK   12  A    between atoms: C19_22  and  C20_23
REMARK   13  A    between atoms: C20_23  and  C21_24
REMARK   14  A    between atoms: C22_25  and  C23_26
REMARK   15  A    between atoms: C22_25  and  C24_27
REMARK   16  A    between atoms: C25_30  and  C26_31
REMARK   17  A    between atoms: C26_31  and  C27_32
REMARK   18  A    between atoms: C28_33  and  C29_34
REMARK   19  A    between atoms: C28_33  and  C30_35
REMARK                            x       y       z     vdW  Elec       q    Type
REMARK                         _______ _______ _______ _____ _____    ______ ____
ROOT
ATOM      7  C   UNL     1      45.116  17.969  21.344  0.00  0.00    -0.124 A 
ATOM      8  C   UNL     1      45.986  18.732  22.104  0.00  0.00    +0.088 A 
ATOM      9  C   UNL     1      47.315  18.861  21.745  0.00  0.00    +0.079 A 
ATOM     12  C   UNL     1      47.799  18.218  20.607  0.00  0.00    +0.143 A 
ATOM     13  C   UNL     1      46.917  17.440  19.841  0.00  0.00    -0.240 A 
ATOM     14  C   UNL     1      47.444  16.748  18.648  0.00  0.00    +0.442 A 
ATOM     15  C   UNL     1      48.914  16.702  18.525  0.00  0.00    -0.218 A 
ATOM     16  C   UNL     1      49.532  15.861  17.598  0.00  0.00    -0.002 A 
ATOM     23  C   UNL     1      50.909  15.834  17.513  0.00  0.00    +0.054 A 
ATOM     26  C   UNL     1      51.676  16.645  18.354  0.00  0.00    +0.154 A 
ATOM     29  C   UNL     1      51.068  17.481  19.272  0.00  0.00    -0.126 A 
ATOM     36  C   UNL     1      49.682  17.523  19.369  0.00  0.00    +0.168 A 
ATOM     37  O   UNL     1      46.710  16.247  17.815  0.00  0.00    -0.419 OA
ATOM     38  O   UNL     1      49.095  18.351  20.256  0.00  0.00    -0.208 OA
ATOM     39  C   UNL     1      45.573  17.316  20.212  0.00  0.00    +0.197 A 
ENDROOT
BRANCH   9  10
ATOM     10  O   UNL     1      48.152  19.618  22.505  0.00  0.00    -0.478 OA
ATOM     11  H   UNL     1      48.984  19.181  22.730  0.00  0.00    +0.392 HD
ENDBRANCH   9  10
BRANCH  23  24
ATOM     24  O   UNL     1      51.519  15.019  16.611  0.00  0.00    -0.473 OA
ATOM     25  H   UNL     1      52.152  14.403  17.004  0.00  0.00    +0.386 HD
ENDBRANCH  23  24
BRANCH  26  27
ATOM     27  O   UNL     1      53.030  16.611  18.267  0.00  0.00    -0.474 OA
ATOM     28  H   UNL     1      53.389  15.737  18.062  0.00  0.00    +0.396 HD
ENDBRANCH  26  27
BRANCH  39  40
ATOM     40  O   UNL     1      44.724  16.565  19.466  0.00  0.00    -0.472 OA
ATOM     41  H   UNL     1      44.427  16.998  18.653  0.00  0.00    +0.401 HD
ENDBRANCH  39  40
BRANCH   7   6
ATOM      6  C   UNL     1      43.670  17.845  21.751  0.00  0.00    +0.091 C 
BRANCH   6   5
ATOM      5  C   UNL     1      43.009  19.224  21.715  0.00  0.00    +0.060 C 
BRANCH   5   4
ATOM      1  C   UNL     1      43.490  20.752  19.397  0.00  0.00    +0.074 C 
ATOM      2  C   UNL     1      42.208  19.972  19.533  0.00  0.00    -0.126 C 
ATOM      3  C   UNL     1      41.183  20.009  18.429  0.00  0.00    +0.072 C 
ATOM      4  C   UNL     1      41.984  19.262  20.611  0.00  0.00    -0.064 C 
ENDBRANCH   5   4
ENDBRANCH   6   5
ENDBRANCH   7   6
BRANCH  16  17
ATOM     17  C   UNL     1      48.699  14.989  16.694  0.00  0.00    +0.098 C 
BRANCH  17  18
ATOM     18  C   UNL     1      48.659  13.566  17.254  0.00  0.00    +0.061 C 
BRANCH  18  19
ATOM     19  C   UNL     1      47.421  12.865  16.757  0.00  0.00    -0.047 C 
ATOM     20  C   UNL     1      46.407  12.672  17.564  0.00  0.00    -0.137 C 
ATOM     21  C   UNL     1      45.119  12.099  17.033  0.00  0.00    +0.072 C 
ATOM     22  C   UNL     1      46.530  13.025  19.025  0.00  0.00    +0.070 C 
ENDBRANCH  18  19
ENDBRANCH  17  18
ENDBRANCH  16  17
BRANCH  29  30
ATOM     30  C   UNL     1      51.910  18.349  20.172  0.00  0.00    +0.102 C 
BRANCH  30  31
ATOM     31  C   UNL     1      51.681  19.820  19.821  0.00  0.00    +0.054 C 
BRANCH  31  32
ATOM     32  C   UNL     1      52.115  20.070  18.399  0.00  0.00    -0.062 C 
ATOM     33  C   UNL     1      51.331  20.726  17.580  0.00  0.00    -0.124 C 
ATOM     34  C   UNL     1      51.821  21.097  16.204  0.00  0.00    +0.072 C 
ATOM     35  C   UNL     1      49.940  21.110  18.014  0.00  0.00    +0.072 C 
ENDBRANCH  31  32
ENDBRANCH  30  31
ENDBRANCH  29  30
TORSDOF 13
ENDMDL
