MODEL 1
REMARK VINA RESULT:      -7.4      0.000      0.000
REMARK  Name = ZINC03197457
REMARK  11 active torsions:
REMARK  status: ('A' for Active; 'I' for Inactive)
REMARK    1  A    between atoms: C1_1  and  C2_2
REMARK    2  A    between atoms: C2_2  and  O2_4
REMARK    3  A    between atoms: O2_4  and  C3_5
REMARK    4  A    between atoms: C6_9  and  C32_38
REMARK    5  A    between atoms: C8_12  and  C9_13
REMARK    6  A    between atoms: C8_12  and  C10_14
REMARK    7  A    between atoms: C13_17  and  C31_37
REMARK    8  A    between atoms: C18_23  and  C30_36
REMARK    9  A    between atoms: C21_26  and  C29_35
REMARK   10  A    between atoms: C24_30  and  C27_33
REMARK   11  A    between atoms: C24_30  and  C28_34
REMARK                            x       y       z     vdW  Elec       q    Type
REMARK                         _______ _______ _______ _____ _____    ______ ____
ROOT
ATOM      4  C   UNL     1      44.405  20.965  19.459  0.00  0.00    +0.181 C 
ATOM      5  C   UNL     1      44.785  19.954  18.380  0.00  0.00    +0.010 C 
ATOM      6  C   UNL     1      44.585  18.556  18.931  0.00  0.00    +0.019 C 
ATOM      7  C   UNL     1      45.426  18.265  20.182  0.00  0.00    -0.024 C 
ATOM      8  C   UNL     1      44.605  17.152  20.901  0.00  0.00    +0.011 C 
ATOM      9  C   UNL     1      45.533  19.420  21.135  0.00  0.00    +0.004 C 
ATOM     10  C   UNL     1      46.681  19.309  22.132  0.00  0.00    +0.010 C 
ATOM     11  C   UNL     1      47.991  18.871  21.496  0.00  0.00    +0.019 C 
ATOM     12  C   UNL     1      47.809  17.530  20.790  0.00  0.00    -0.026 C 
ATOM     13  C   UNL     1      47.403  16.476  21.837  0.00  0.00    +0.016 C 
ATOM     14  C   UNL     1      49.151  17.036  20.252  0.00  0.00    -0.003 C 
ATOM     15  C   UNL     1      49.018  15.511  20.112  0.00  0.00    +0.018 C 
ATOM     16  C   UNL     1      50.250  17.320  21.275  0.00  0.00    +0.022 C 
ATOM     17  C   UNL     1      51.592  16.809  20.755  0.00  0.00    +0.009 C 
ATOM     18  C   UNL     1      51.980  17.591  19.496  0.00  0.00    -0.042 C 
ATOM     19  C   UNL     1      53.338  17.059  19.009  0.00  0.00    +0.016 C 
ATOM     20  C   UNL     1      50.942  17.400  18.399  0.00  0.00    +0.037 C 
ATOM     21  C   UNL     1      51.244  18.271  17.195  0.00  0.00    +0.017 C 
ATOM     22  C   UNL     1      51.595  19.718  17.482  0.00  0.00    -0.050 C 
ATOM     23  C   UNL     1      52.281  20.298  16.223  0.00  0.00    +0.007 C 
ATOM     24  C   UNL     1      50.347  20.565  17.747  0.00  0.00    +0.021 C 
ATOM     25  C   UNL     1      52.568  19.874  18.646  0.00  0.00    +0.010 C 
ATOM     26  C   UNL     1      52.109  19.070  19.856  0.00  0.00    +0.019 C 
ATOM     27  C   UNL     1      49.532  17.585  18.911  0.00  0.00    -0.088 C 
ATOM     28  C   UNL     1      48.650  18.151  18.143  0.00  0.00    -0.060 C 
ATOM     29  C   UNL     1      47.259  18.512  18.555  0.00  0.00    +0.054 C 
ATOM     30  C   UNL     1      46.750  17.649  19.714  0.00  0.00    +0.017 C 
ATOM     31  C   UNL     1      45.352  20.839  20.648  0.00  0.00    -0.038 C 
ATOM     32  C   UNL     1      46.677  21.526  20.311  0.00  0.00    +0.039 C 
ATOM     33  C   UNL     1      44.714  21.655  21.802  0.00  0.00    +0.022 C 
ENDROOT
BRANCH   4   3
ATOM      3  O   UNL     1      43.062  20.734  19.888  0.00  0.00    -0.338 OA
BRANCH   3   2
ATOM      1  C   UNL     1      41.134  20.401  18.384  0.00  0.00    +0.149 C 
ATOM      2  C   UNL     1      42.084  21.283  19.151  0.00  0.00    +0.456 C 
ATOM     34  O   UNL     1      41.966  22.484  19.103  0.00  0.00    -0.514 OA
ENDBRANCH   3   2
ENDBRANCH   4   3
TORSDOF 2
ENDMDL
MODEL 2
REMARK VINA RESULT:      -6.8      3.223      6.664
REMARK  Name = ZINC03197457
REMARK  11 active torsions:
REMARK  status: ('A' for Active; 'I' for Inactive)
REMARK    1  A    between atoms: C1_1  and  C2_2
REMARK    2  A    between atoms: C2_2  and  O2_4
REMARK    3  A    between atoms: O2_4  and  C3_5
REMARK    4  A    between atoms: C6_9  and  C32_38
REMARK    5  A    between atoms: C8_12  and  C9_13
REMARK    6  A    between atoms: C8_12  and  C10_14
REMARK    7  A    between atoms: C13_17  and  C31_37
REMARK    8  A    between atoms: C18_23  and  C30_36
REMARK    9  A    between atoms: C21_26  and  C29_35
REMARK   10  A    between atoms: C24_30  and  C27_33
REMARK   11  A    between atoms: C24_30  and  C28_34
REMARK                            x       y       z     vdW  Elec       q    Type
REMARK                         _______ _______ _______ _____ _____    ______ ____
ROOT
ATOM      4  C   UNL     1      46.541  14.205  17.866  0.00  0.00    +0.181 C 
ATOM      5  C   UNL     1      46.661  15.418  16.948  0.00  0.00    +0.010 C 
ATOM      6  C   UNL     1      48.114  15.850  16.899  0.00  0.00    +0.019 C 
ATOM      7  C   UNL     1      48.687  16.226  18.273  0.00  0.00    -0.024 C 
ATOM      8  C   UNL     1      50.213  15.970  18.093  0.00  0.00    +0.011 C 
ATOM      9  C   UNL     1      48.220  15.347  19.396  0.00  0.00    +0.004 C 
ATOM     10  C   UNL     1      48.417  15.944  20.785  0.00  0.00    +0.010 C 
ATOM     11  C   UNL     1      47.988  17.399  20.882  0.00  0.00    +0.019 C 
ATOM     12  C   UNL     1      48.752  18.240  19.862  0.00  0.00    -0.026 C 
ATOM     13  C   UNL     1      50.255  18.157  20.187  0.00  0.00    +0.016 C 
ATOM     14  C   UNL     1      48.405  19.718  20.039  0.00  0.00    -0.003 C 
ATOM     15  C   UNL     1      49.584  20.505  19.445  0.00  0.00    +0.018 C 
ATOM     16  C   UNL     1      48.319  20.052  21.528  0.00  0.00    +0.022 C 
ATOM     17  C   UNL     1      47.996  21.532  21.713  0.00  0.00    +0.009 C 
ATOM     18  C   UNL     1      46.606  21.824  21.139  0.00  0.00    -0.042 C 
ATOM     19  C   UNL     1      46.310  23.318  21.354  0.00  0.00    +0.016 C 
ATOM     20  C   UNL     1      46.559  21.511  19.650  0.00  0.00    +0.037 C 
ATOM     21  C   UNL     1      45.157  21.670  19.096  0.00  0.00    +0.017 C 
ATOM     22  C   UNL     1      44.038  21.041  19.904  0.00  0.00    -0.050 C 
ATOM     23  C   UNL     1      42.705  21.672  19.438  0.00  0.00    +0.007 C 
ATOM     24  C   UNL     1      43.935  19.534  19.658  0.00  0.00    +0.021 C 
ATOM     25  C   UNL     1      44.168  21.302  21.401  0.00  0.00    +0.010 C 
ATOM     26  C   UNL     1      45.575  20.984  21.892  0.00  0.00    +0.019 C 
ATOM     27  C   UNL     1      47.160  20.162  19.332  0.00  0.00    -0.088 C 
ATOM     28  C   UNL     1      46.628  19.438  18.393  0.00  0.00    -0.060 C 
ATOM     29  C   UNL     1      47.034  18.039  18.054  0.00  0.00    +0.054 C 
ATOM     30  C   UNL     1      48.478  17.734  18.462  0.00  0.00    +0.017 C 
ATOM     31  C   UNL     1      46.915  14.592  19.293  0.00  0.00    -0.038 C 
ATOM     32  C   UNL     1      45.744  15.337  19.937  0.00  0.00    +0.039 C 
ATOM     33  C   UNL     1      47.076  13.263  20.077  0.00  0.00    +0.022 C 
ENDROOT
BRANCH   4   3
ATOM      3  O   UNL     1      47.404  13.163  17.408  0.00  0.00    -0.338 OA
BRANCH   3   2
ATOM      1  C   UNL     1      45.676  11.636  16.530  0.00  0.00    +0.149 C 
ATOM      2  C   UNL     1      46.962  12.407  16.392  0.00  0.00    +0.456 C 
ATOM     34  O   UNL     1      47.598  12.344  15.366  0.00  0.00    -0.514 OA
ENDBRANCH   3   2
ENDBRANCH   4   3
TORSDOF 2
ENDMDL
MODEL 3
REMARK VINA RESULT:      -6.4      4.225      7.710
REMARK  Name = ZINC03197457
REMARK  11 active torsions:
REMARK  status: ('A' for Active; 'I' for Inactive)
REMARK    1  A    between atoms: C1_1  and  C2_2
REMARK    2  A    between atoms: C2_2  and  O2_4
REMARK    3  A    between atoms: O2_4  and  C3_5
REMARK    4  A    between atoms: C6_9  and  C32_38
REMARK    5  A    between atoms: C8_12  and  C9_13
REMARK    6  A    between atoms: C8_12  and  C10_14
REMARK    7  A    between atoms: C13_17  and  C31_37
REMARK    8  A    between atoms: C18_23  and  C30_36
REMARK    9  A    between atoms: C21_26  and  C29_35
REMARK   10  A    between atoms: C24_30  and  C27_33
REMARK   11  A    between atoms: C24_30  and  C28_34
REMARK                            x       y       z     vdW  Elec       q    Type
REMARK                         _______ _______ _______ _____ _____    ______ ____
ROOT
ATOM      4  C   UNL     1      49.272  13.739  15.983  0.00  0.00    +0.181 C 
ATOM      5  C   UNL     1      49.961  14.627  17.015  0.00  0.00    +0.010 C 
ATOM      6  C   UNL     1      50.047  13.873  18.327  0.00  0.00    +0.019 C 
ATOM      7  C   UNL     1      48.677  13.458  18.885  0.00  0.00    -0.024 C 
ATOM      8  C   UNL     1      49.022  12.216  19.760  0.00  0.00    +0.011 C 
ATOM      9  C   UNL     1      47.699  13.004  17.840  0.00  0.00    +0.004 C 
ATOM     10  C   UNL     1      46.245  13.006  18.298  0.00  0.00    +0.010 C 
ATOM     11  C   UNL     1      45.851  14.268  19.050  0.00  0.00    +0.019 C 
ATOM     12  C   UNL     1      46.759  14.462  20.262  0.00  0.00    -0.026 C 
ATOM     13  C   UNL     1      46.576  13.260  21.207  0.00  0.00    +0.016 C 
ATOM     14  C   UNL     1      46.289  15.664  21.080  0.00  0.00    -0.003 C 
ATOM     15  C   UNL     1      46.822  15.444  22.505  0.00  0.00    +0.018 C 
ATOM     16  C   UNL     1      44.762  15.677  21.146  0.00  0.00    +0.022 C 
ATOM     17  C   UNL     1      44.286  16.863  21.980  0.00  0.00    +0.009 C 
ATOM     18  C   UNL     1      44.684  18.167  21.284  0.00  0.00    -0.042 C 
ATOM     19  C   UNL     1      44.178  19.337  22.144  0.00  0.00    +0.016 C 
ATOM     20  C   UNL     1      46.197  18.264  21.142  0.00  0.00    +0.037 C 
ATOM     21  C   UNL     1      46.599  19.486  20.338  0.00  0.00    +0.017 C 
ATOM     22  C   UNL     1      45.832  19.729  19.053  0.00  0.00    -0.050 C 
ATOM     23  C   UNL     1      46.067  21.198  18.631  0.00  0.00    +0.007 C 
ATOM     24  C   UNL     1      46.339  18.844  17.911  0.00  0.00    +0.021 C 
ATOM     25  C   UNL     1      44.327  19.535  19.213  0.00  0.00    +0.010 C 
ATOM     26  C   UNL     1      44.016  18.216  19.910  0.00  0.00    +0.019 C 
ATOM     27  C   UNL     1      46.801  16.989  20.602  0.00  0.00    -0.088 C 
ATOM     28  C   UNL     1      47.811  17.064  19.787  0.00  0.00    -0.060 C 
ATOM     29  C   UNL     1      48.430  15.901  19.080  0.00  0.00    +0.054 C 
ATOM     30  C   UNL     1      48.201  14.578  19.818  0.00  0.00    +0.017 C 
ATOM     31  C   UNL     1      47.833  13.465  16.408  0.00  0.00    -0.038 C 
ATOM     32  C   UNL     1      46.973  14.691  16.093  0.00  0.00    +0.039 C 
ATOM     33  C   UNL     1      47.320  12.320  15.495  0.00  0.00    +0.022 C 
ENDROOT
BRANCH   4   3
ATOM      3  O   UNL     1      49.979  12.504  15.857  0.00  0.00    -0.338 OA
BRANCH   3   2
ATOM      1  C   UNL     1      50.632  12.744  13.489  0.00  0.00    +0.149 C 
ATOM      2  C   UNL     1      50.949  12.447  14.931  0.00  0.00    +0.456 C 
ATOM     34  O   UNL     1      52.076  12.157  15.255  0.00  0.00    -0.514 OA
ENDBRANCH   3   2
ENDBRANCH   4   3
TORSDOF 2
ENDMDL
MODEL 4
REMARK VINA RESULT:      -6.1      3.514      6.196
REMARK  Name = ZINC03197457
REMARK  11 active torsions:
REMARK  status: ('A' for Active; 'I' for Inactive)
REMARK    1  A    between atoms: C1_1  and  C2_2
REMARK    2  A    between atoms: C2_2  and  O2_4
REMARK    3  A    between atoms: O2_4  and  C3_5
REMARK    4  A    between atoms: C6_9  and  C32_38
REMARK    5  A    between atoms: C8_12  and  C9_13
REMARK    6  A    between atoms: C8_12  and  C10_14
REMARK    7  A    between atoms: C13_17  and  C31_37
REMARK    8  A    between atoms: C18_23  and  C30_36
REMARK    9  A    between atoms: C21_26  and  C29_35
REMARK   10  A    between atoms: C24_30  and  C27_33
REMARK   11  A    between atoms: C24_30  and  C28_34
REMARK                            x       y       z     vdW  Elec       q    Type
REMARK                         _______ _______ _______ _____ _____    ______ ____
ROOT
ATOM      4  C   UNL     1      46.744  13.319  18.637  0.00  0.00    +0.181 C 
ATOM      5  C   UNL     1      46.504  14.496  17.696  0.00  0.00    +0.010 C 
ATOM      6  C   UNL     1      47.498  14.418  16.554  0.00  0.00    +0.019 C 
ATOM      7  C   UNL     1      48.963  14.460  17.015  0.00  0.00    -0.024 C 
ATOM      8  C   UNL     1      49.709  13.722  15.862  0.00  0.00    +0.011 C 
ATOM      9  C   UNL     1      49.233  13.694  18.277  0.00  0.00    +0.004 C 
ATOM     10  C   UNL     1      50.537  14.067  18.972  0.00  0.00    +0.010 C 
ATOM     11  C   UNL     1      50.763  15.568  19.065  0.00  0.00    +0.019 C 
ATOM     12  C   UNL     1      50.742  16.189  17.670  0.00  0.00    -0.026 C 
ATOM     13  C   UNL     1      51.890  15.578  16.845  0.00  0.00    +0.016 C 
ATOM     14  C   UNL     1      51.083  17.676  17.755  0.00  0.00    -0.003 C 
ATOM     15  C   UNL     1      51.615  18.070  16.368  0.00  0.00    +0.018 C 
ATOM     16  C   UNL     1      52.207  17.889  18.767  0.00  0.00    +0.022 C 
ATOM     17  C   UNL     1      52.570  19.370  18.841  0.00  0.00    +0.009 C 
ATOM     18  C   UNL     1      51.372  20.161  19.376  0.00  0.00    -0.042 C 
ATOM     19  C   UNL     1      51.777  21.642  19.449  0.00  0.00    +0.016 C 
ATOM     20  C   UNL     1      50.170  20.011  18.453  0.00  0.00    +0.037 C 
ATOM     21  C   UNL     1      48.940  20.679  19.036  0.00  0.00    +0.017 C 
ATOM     22  C   UNL     1      48.647  20.395  20.496  0.00  0.00    -0.050 C 
ATOM     23  C   UNL     1      47.661  21.474  21.001  0.00  0.00    +0.007 C 
ATOM     24  C   UNL     1      47.967  19.037  20.688  0.00  0.00    +0.021 C 
ATOM     25  C   UNL     1      49.892  20.466  21.376  0.00  0.00    +0.010 C 
ATOM     26  C   UNL     1      51.033  19.653  20.777  0.00  0.00    +0.019 C 
ATOM     27  C   UNL     1      49.923  18.571  18.068  0.00  0.00    -0.088 C 
ATOM     28  C   UNL     1      48.699  18.153  17.941  0.00  0.00    -0.060 C 
ATOM     29  C   UNL     1      48.300  16.734  17.689  0.00  0.00    +0.054 C 
ATOM     30  C   UNL     1      49.407  15.927  17.005  0.00  0.00    +0.017 C 
ATOM     31  C   UNL     1      48.126  13.433  19.271  0.00  0.00    -0.038 C 
ATOM     32  C   UNL     1      48.079  14.469  20.397  0.00  0.00    +0.039 C 
ATOM     33  C   UNL     1      48.410  12.064  19.944  0.00  0.00    +0.022 C 
ENDROOT
BRANCH   4   3
ATOM      3  O   UNL     1      46.647  12.092  17.912  0.00  0.00    -0.338 OA
BRANCH   3   2
ATOM      1  C   UNL     1      45.548  11.077  15.949  0.00  0.00    +0.149 C 
ATOM      2  C   UNL     1      45.515  11.877  17.225  0.00  0.00    +0.456 C 
ATOM     34  O   UNL     1      44.469  12.326  17.630  0.00  0.00    -0.514 OA
ENDBRANCH   3   2
ENDBRANCH   4   3
TORSDOF 2
ENDMDL
MODEL 5
REMARK VINA RESULT:      -5.8      3.421      7.421
REMARK  Name = ZINC03197457
REMARK  11 active torsions:
REMARK  status: ('A' for Active; 'I' for Inactive)
REMARK    1  A    between atoms: C1_1  and  C2_2
REMARK    2  A    between atoms: C2_2  and  O2_4
REMARK    3  A    between atoms: O2_4  and  C3_5
REMARK    4  A    between atoms: C6_9  and  C32_38
REMARK    5  A    between atoms: C8_12  and  C9_13
REMARK    6  A    between atoms: C8_12  and  C10_14
REMARK    7  A    between atoms: C13_17  and  C31_37
REMARK    8  A    between atoms: C18_23  and  C30_36
REMARK    9  A    between atoms: C21_26  and  C29_35
REMARK   10  A    between atoms: C24_30  and  C27_33
REMARK   11  A    between atoms: C24_30  and  C28_34
REMARK                            x       y       z     vdW  Elec       q    Type
REMARK                         _______ _______ _______ _____ _____    ______ ____
ROOT
ATOM      4  C   UNL     1      49.821  13.881  18.446  0.00  0.00    +0.181 C 
ATOM      5  C   UNL     1      49.394  14.887  17.382  0.00  0.00    +0.010 C 
ATOM      6  C   UNL     1      50.522  15.876  17.163  0.00  0.00    +0.019 C 
ATOM      7  C   UNL     1      50.910  16.651  18.431  0.00  0.00    -0.024 C 
ATOM      8  C   UNL     1      52.396  17.034  18.162  0.00  0.00    +0.011 C 
ATOM      9  C   UNL     1      50.887  15.828  19.687  0.00  0.00    +0.004 C 
ATOM     10  C   UNL     1      50.840  16.645  20.973  0.00  0.00    +0.010 C 
ATOM     11  C   UNL     1      49.835  17.785  20.927  0.00  0.00    +0.019 C 
ATOM     12  C   UNL     1      50.145  18.712  19.755  0.00  0.00    -0.026 C 
ATOM     13  C   UNL     1      51.548  19.313  19.965  0.00  0.00    +0.016 C 
ATOM     14  C   UNL     1      49.207  19.917  19.779  0.00  0.00    -0.003 C 
ATOM     15  C   UNL     1      49.925  21.032  19.002  0.00  0.00    +0.018 C 
ATOM     16  C   UNL     1      49.019  20.394  21.218  0.00  0.00    +0.022 C 
ATOM     17  C   UNL     1      48.100  21.613  21.249  0.00  0.00    +0.009 C 
ATOM     18  C   UNL     1      46.706  21.211  20.758  0.00  0.00    -0.042 C 
ATOM     19  C   UNL     1      45.806  22.457  20.814  0.00  0.00    +0.016 C 
ATOM     20  C   UNL     1      46.765  20.696  19.326  0.00  0.00    +0.037 C 
ATOM     21  C   UNL     1      45.417  20.171  18.871  0.00  0.00    +0.017 C 
ATOM     22  C   UNL     1      44.690  19.256  19.837  0.00  0.00    -0.050 C 
ATOM     23  C   UNL     1      43.205  19.196  19.407  0.00  0.00    +0.007 C 
ATOM     24  C   UNL     1      45.234  17.825  19.784  0.00  0.00    +0.021 C 
ATOM     25  C   UNL     1      44.729  19.759  21.277  0.00  0.00    +0.010 C 
ATOM     26  C   UNL     1      46.148  20.134  21.687  0.00  0.00    +0.019 C 
ATOM     27  C   UNL     1      47.876  19.692  19.127  0.00  0.00    -0.088 C 
ATOM     28  C   UNL     1      47.683  18.685  18.327  0.00  0.00    -0.060 C 
ATOM     29  C   UNL     1      48.638  17.553  18.129  0.00  0.00    +0.054 C 
ATOM     30  C   UNL     1      50.083  17.942  18.453  0.00  0.00    +0.017 C 
ATOM     31  C   UNL     1      50.026  14.590  19.781  0.00  0.00    -0.038 C 
ATOM     32  C   UNL     1      48.663  14.860  20.422  0.00  0.00    +0.039 C 
ATOM     33  C   UNL     1      50.754  13.579  20.704  0.00  0.00    +0.022 C 
ENDROOT
BRANCH   4   3
ATOM      3  O   UNL     1      51.036  13.243  18.050  0.00  0.00    -0.338 OA
BRANCH   3   2
ATOM      1  C   UNL     1      50.013  11.028  17.675  0.00  0.00    +0.149 C 
ATOM      2  C   UNL     1      50.928  12.155  17.272  0.00  0.00    +0.456 C 
ATOM     34  O   UNL     1      51.566  12.079  16.249  0.00  0.00    -0.514 OA
ENDBRANCH   3   2
ENDBRANCH   4   3
TORSDOF 2
ENDMDL
MODEL 6
REMARK VINA RESULT:      -5.8      2.876      4.516
REMARK  Name = ZINC03197457
REMARK  11 active torsions:
REMARK  status: ('A' for Active; 'I' for Inactive)
REMARK    1  A    between atoms: C1_1  and  C2_2
REMARK    2  A    between atoms: C2_2  and  O2_4
REMARK    3  A    between atoms: O2_4  and  C3_5
REMARK    4  A    between atoms: C6_9  and  C32_38
REMARK    5  A    between atoms: C8_12  and  C9_13
REMARK    6  A    between atoms: C8_12  and  C10_14
REMARK    7  A    between atoms: C13_17  and  C31_37
REMARK    8  A    between atoms: C18_23  and  C30_36
REMARK    9  A    between atoms: C21_26  and  C29_35
REMARK   10  A    between atoms: C24_30  and  C27_33
REMARK   11  A    between atoms: C24_30  and  C28_34
REMARK                            x       y       z     vdW  Elec       q    Type
REMARK                         _______ _______ _______ _____ _____    ______ ____
ROOT
ATOM      4  C   UNL     1      44.652  18.281  19.520  0.00  0.00    +0.181 C 
ATOM      5  C   UNL     1      44.713  16.869  20.096  0.00  0.00    +0.010 C 
ATOM      6  C   UNL     1      45.644  16.870  21.293  0.00  0.00    +0.019 C 
ATOM      7  C   UNL     1      47.074  17.316  20.954  0.00  0.00    -0.024 C 
ATOM      8  C   UNL     1      47.596  17.867  22.315  0.00  0.00    +0.011 C 
ATOM      9  C   UNL     1      47.150  18.442  19.964  0.00  0.00    +0.004 C 
ATOM     10  C   UNL     1      48.514  18.604  19.300  0.00  0.00    +0.010 C 
ATOM     11  C   UNL     1      49.117  17.289  18.833  0.00  0.00    +0.019 C 
ATOM     12  C   UNL     1      49.243  16.323  20.009  0.00  0.00    -0.026 C 
ATOM     13  C   UNL     1      50.189  16.944  21.053  0.00  0.00    +0.016 C 
ATOM     14  C   UNL     1      49.955  15.047  19.562  0.00  0.00    -0.003 C 
ATOM     15  C   UNL     1      50.558  14.428  20.833  0.00  0.00    +0.018 C 
ATOM     16  C   UNL     1      51.106  15.402  18.621  0.00  0.00    +0.022 C 
ATOM     17  C   UNL     1      51.837  14.134  18.188  0.00  0.00    +0.009 C 
ATOM     18  C   UNL     1      50.887  13.254  17.370  0.00  0.00    -0.042 C 
ATOM     19  C   UNL     1      51.659  11.995  16.942  0.00  0.00    +0.016 C 
ATOM     20  C   UNL     1      49.679  12.845  18.202  0.00  0.00    +0.037 C 
ATOM     21  C   UNL     1      48.666  12.084  17.368  0.00  0.00    +0.017 C 
ATOM     22  C   UNL     1      48.324  12.679  16.016  0.00  0.00    -0.050 C 
ATOM     23  C   UNL     1      47.652  11.573  15.168  0.00  0.00    +0.007 C 
ATOM     24  C   UNL     1      47.320  13.828  16.137  0.00  0.00    +0.021 C 
ATOM     25  C   UNL     1      49.552  13.159  15.250  0.00  0.00    +0.010 C 
ATOM     26  C   UNL     1      50.442  14.028  16.131  0.00  0.00    +0.019 C 
ATOM     27  C   UNL     1      49.067  14.017  18.932  0.00  0.00    -0.088 C 
ATOM     28  C   UNL     1      47.775  14.073  19.068  0.00  0.00    -0.060 C 
ATOM     29  C   UNL     1      47.023  15.225  19.653  0.00  0.00    +0.054 C 
ATOM     30  C   UNL     1      47.880  16.057  20.612  0.00  0.00    +0.017 C 
ATOM     31  C   UNL     1      46.023  18.688  18.989  0.00  0.00    -0.038 C 
ATOM     32  C   UNL     1      46.254  18.023  17.631  0.00  0.00    +0.039 C 
ATOM     33  C   UNL     1      45.952  20.215  18.726  0.00  0.00    +0.022 C 
ENDROOT
BRANCH   4   3
ATOM      3  O   UNL     1      44.237  19.199  20.533  0.00  0.00    -0.338 OA
BRANCH   3   2
ATOM      1  C   UNL     1      41.962  19.651  19.690  0.00  0.00    +0.149 C 
ATOM      2  C   UNL     1      42.922  19.274  20.787  0.00  0.00    +0.456 C 
ATOM     34  O   UNL     1      42.508  19.039  21.898  0.00  0.00    -0.514 OA
ENDBRANCH   3   2
ENDBRANCH   4   3
TORSDOF 2
ENDMDL
MODEL 7
REMARK VINA RESULT:      -5.7      3.304      7.536
REMARK  Name = ZINC03197457
REMARK  11 active torsions:
REMARK  status: ('A' for Active; 'I' for Inactive)
REMARK    1  A    between atoms: C1_1  and  C2_2
REMARK    2  A    between atoms: C2_2  and  O2_4
REMARK    3  A    between atoms: O2_4  and  C3_5
REMARK    4  A    between atoms: C6_9  and  C32_38
REMARK    5  A    between atoms: C8_12  and  C9_13
REMARK    6  A    between atoms: C8_12  and  C10_14
REMARK    7  A    between atoms: C13_17  and  C31_37
REMARK    8  A    between atoms: C18_23  and  C30_36
REMARK    9  A    between atoms: C21_26  and  C29_35
REMARK   10  A    between atoms: C24_30  and  C27_33
REMARK   11  A    between atoms: C24_30  and  C28_34
REMARK                            x       y       z     vdW  Elec       q    Type
REMARK                         _______ _______ _______ _____ _____    ______ ____
ROOT
ATOM      4  C   UNL     1      52.076  16.295  19.393  0.00  0.00    +0.181 C 
ATOM      5  C   UNL     1      51.249  16.184  20.670  0.00  0.00    +0.010 C 
ATOM      6  C   UNL     1      50.184  15.124  20.470  0.00  0.00    +0.019 C 
ATOM      7  C   UNL     1      49.232  15.425  19.303  0.00  0.00    -0.024 C 
ATOM      8  C   UNL     1      48.736  14.007  18.887  0.00  0.00    +0.011 C 
ATOM      9  C   UNL     1      49.902  16.028  18.102  0.00  0.00    +0.004 C 
ATOM     10  C   UNL     1      48.950  16.719  17.132  0.00  0.00    +0.010 C 
ATOM     11  C   UNL     1      47.930  17.612  17.821  0.00  0.00    +0.019 C 
ATOM     12  C   UNL     1      47.119  16.800  18.829  0.00  0.00    -0.026 C 
ATOM     13  C   UNL     1      46.360  15.696  18.069  0.00  0.00    +0.016 C 
ATOM     14  C   UNL     1      46.019  17.671  19.435  0.00  0.00    -0.003 C 
ATOM     15  C   UNL     1      44.936  16.702  19.934  0.00  0.00    +0.018 C 
ATOM     16  C   UNL     1      45.399  18.549  18.348  0.00  0.00    +0.022 C 
ATOM     17  C   UNL     1      44.284  19.405  18.942  0.00  0.00    +0.009 C 
ATOM     18  C   UNL     1      44.878  20.372  19.971  0.00  0.00    -0.042 C 
ATOM     19  C   UNL     1      43.731  21.225  20.537  0.00  0.00    +0.016 C 
ATOM     20  C   UNL     1      45.547  19.609  21.106  0.00  0.00    +0.037 C 
ATOM     21  C   UNL     1      46.253  20.550  22.063  0.00  0.00    +0.017 C 
ATOM     22  C   UNL     1      47.119  21.625  21.435  0.00  0.00    -0.050 C 
ATOM     23  C   UNL     1      47.377  22.711  22.505  0.00  0.00    +0.007 C 
ATOM     24  C   UNL     1      48.484  21.079  21.007  0.00  0.00    +0.021 C 
ATOM     25  C   UNL     1      46.451  22.305  20.244  0.00  0.00    +0.010 C 
ATOM     26  C   UNL     1      45.890  21.277  19.269  0.00  0.00    +0.019 C 
ATOM     27  C   UNL     1      46.450  18.510  20.600  0.00  0.00    -0.088 C 
ATOM     28  C   UNL     1      47.557  18.259  21.233  0.00  0.00    -0.060 C 
ATOM     29  C   UNL     1      48.604  17.292  20.781  0.00  0.00    +0.054 C 
ATOM     30  C   UNL     1      48.037  16.198  19.871  0.00  0.00    +0.017 C 
ATOM     31  C   UNL     1      51.201  16.787  18.245  0.00  0.00    -0.038 C 
ATOM     32  C   UNL     1      50.997  18.297  18.378  0.00  0.00    +0.039 C 
ATOM     33  C   UNL     1      52.020  16.566  16.946  0.00  0.00    +0.022 C 
ENDROOT
BRANCH   4   3
ATOM      3  O   UNL     1      52.631  15.021  19.062  0.00  0.00    -0.338 OA
BRANCH   3   2
ATOM      1  C   UNL     1      54.899  15.773  19.683  0.00  0.00    +0.149 C 
ATOM      2  C   UNL     1      53.826  14.720  19.594  0.00  0.00    +0.456 C 
ATOM     34  O   UNL     1      54.041  13.602  20.000  0.00  0.00    -0.514 OA
ENDBRANCH   3   2
ENDBRANCH   4   3
TORSDOF 2
ENDMDL
MODEL 8
REMARK VINA RESULT:      -5.7      4.783      8.161
REMARK  Name = ZINC03197457
REMARK  11 active torsions:
REMARK  status: ('A' for Active; 'I' for Inactive)
REMARK    1  A    between atoms: C1_1  and  C2_2
REMARK    2  A    between atoms: C2_2  and  O2_4
REMARK    3  A    between atoms: O2_4  and  C3_5
REMARK    4  A    between atoms: C6_9  and  C32_38
REMARK    5  A    between atoms: C8_12  and  C9_13
REMARK    6  A    between atoms: C8_12  and  C10_14
REMARK    7  A    between atoms: C13_17  and  C31_37
REMARK    8  A    between atoms: C18_23  and  C30_36
REMARK    9  A    between atoms: C21_26  and  C29_35
REMARK   10  A    between atoms: C24_30  and  C27_33
REMARK   11  A    between atoms: C24_30  and  C28_34
REMARK                            x       y       z     vdW  Elec       q    Type
REMARK                         _______ _______ _______ _____ _____    ______ ____
ROOT
ATOM      4  C   UNL     1      49.688  13.017  15.181  0.00  0.00    +0.181 C 
ATOM      5  C   UNL     1      50.452  14.026  16.033  0.00  0.00    +0.010 C 
ATOM      6  C   UNL     1      50.953  13.329  17.283  0.00  0.00    +0.019 C 
ATOM      7  C   UNL     1      49.829  12.726  18.139  0.00  0.00    -0.024 C 
ATOM      8  C   UNL     1      50.553  11.574  18.899  0.00  0.00    +0.011 C 
ATOM      9  C   UNL     1      48.718  12.102  17.346  0.00  0.00    +0.004 C 
ATOM     10  C   UNL     1      47.426  11.896  18.128  0.00  0.00    +0.010 C 
ATOM     11  C   UNL     1      47.027  13.103  18.963  0.00  0.00    +0.019 C 
ATOM     12  C   UNL     1      48.150  13.464  19.933  0.00  0.00    -0.026 C 
ATOM     13  C   UNL     1      48.376  12.273  20.883  0.00  0.00    +0.016 C 
ATOM     14  C   UNL     1      47.702  14.602  20.848  0.00  0.00    -0.003 C 
ATOM     15  C   UNL     1      48.576  14.503  22.109  0.00  0.00    +0.018 C 
ATOM     16  C   UNL     1      46.249  14.385  21.267  0.00  0.00    +0.022 C 
ATOM     17  C   UNL     1      45.801  15.507  22.201  0.00  0.00    +0.009 C 
ATOM     18  C   UNL     1      45.822  16.838  21.443  0.00  0.00    -0.042 C 
ATOM     19  C   UNL     1      45.355  17.940  22.409  0.00  0.00    +0.016 C 
ATOM     20  C   UNL     1      47.228  17.159  20.955  0.00  0.00    +0.037 C 
ATOM     21  C   UNL     1      47.242  18.406  20.092  0.00  0.00    +0.017 C 
ATOM     22  C   UNL     1      46.171  18.496  19.022  0.00  0.00    -0.050 C 
ATOM     23  C   UNL     1      46.074  19.972  18.571  0.00  0.00    +0.007 C 
ATOM     24  C   UNL     1      46.530  17.668  17.785  0.00  0.00    +0.021 C 
ATOM     25  C   UNL     1      44.792  18.080  19.525  0.00  0.00    +0.010 C 
ATOM     26  C   UNL     1      44.856  16.748  20.263  0.00  0.00    +0.019 C 
ATOM     27  C   UNL     1      47.881  15.976  20.278  0.00  0.00    -0.088 C 
ATOM     28  C   UNL     1      48.651  16.182  19.252  0.00  0.00    -0.060 C 
ATOM     29  C   UNL     1      49.261  15.108  18.409  0.00  0.00    +0.054 C 
ATOM     30  C   UNL     1      49.415  13.786  19.167  0.00  0.00    +0.017 C 
ATOM     31  C   UNL     1      48.446  12.539  15.925  0.00  0.00    -0.038 C 
ATOM     32  C   UNL     1      47.359  13.612  15.830  0.00  0.00    +0.039 C 
ATOM     33  C   UNL     1      47.918  11.306  15.146  0.00  0.00    +0.022 C 
ENDROOT
BRANCH   4   3
ATOM      3  O   UNL     1      50.528  11.900  14.883  0.00  0.00    -0.338 OA
BRANCH   3   2
ATOM      1  C   UNL     1      50.676  12.854  12.611  0.00  0.00    +0.149 C 
ATOM      2  C   UNL     1      50.909  11.747  13.605  0.00  0.00    +0.456 C 
ATOM     34  O   UNL     1      51.438  10.719  13.252  0.00  0.00    -0.514 OA
ENDBRANCH   3   2
ENDBRANCH   4   3
TORSDOF 2
ENDMDL
MODEL 9
REMARK VINA RESULT:      -5.7      3.713      6.426
REMARK  Name = ZINC03197457
REMARK  11 active torsions:
REMARK  status: ('A' for Active; 'I' for Inactive)
REMARK    1  A    between atoms: C1_1  and  C2_2
REMARK    2  A    between atoms: C2_2  and  O2_4
REMARK    3  A    between atoms: O2_4  and  C3_5
REMARK    4  A    between atoms: C6_9  and  C32_38
REMARK    5  A    between atoms: C8_12  and  C9_13
REMARK    6  A    between atoms: C8_12  and  C10_14
REMARK    7  A    between atoms: C13_17  and  C31_37
REMARK    8  A    between atoms: C18_23  and  C30_36
REMARK    9  A    between atoms: C21_26  and  C29_35
REMARK   10  A    between atoms: C24_30  and  C27_33
REMARK   11  A    between atoms: C24_30  and  C28_34
REMARK                            x       y       z     vdW  Elec       q    Type
REMARK                         _______ _______ _______ _____ _____    ______ ____
ROOT
ATOM      4  C   UNL     1      51.574  19.449  20.418  0.00  0.00    +0.181 C 
ATOM      5  C   UNL     1      51.582  19.274  18.902  0.00  0.00    +0.010 C 
ATOM      6  C   UNL     1      50.274  19.798  18.344  0.00  0.00    +0.019 C 
ATOM      7  C   UNL     1      49.038  19.080  18.905  0.00  0.00    -0.024 C 
ATOM      8  C   UNL     1      47.916  20.150  18.751  0.00  0.00    +0.011 C 
ATOM      9  C   UNL     1      49.131  18.745  20.366  0.00  0.00    +0.004 C 
ATOM     10  C   UNL     1      48.144  17.681  20.831  0.00  0.00    +0.010 C 
ATOM     11  C   UNL     1      48.063  16.484  19.896  0.00  0.00    +0.019 C 
ATOM     12  C   UNL     1      47.682  16.941  18.490  0.00  0.00    -0.026 C 
ATOM     13  C   UNL     1      46.292  17.603  18.550  0.00  0.00    +0.016 C 
ATOM     14  C   UNL     1      47.487  15.729  17.581  0.00  0.00    -0.003 C 
ATOM     15  C   UNL     1      46.570  16.195  16.439  0.00  0.00    +0.018 C 
ATOM     16  C   UNL     1      46.760  14.624  18.346  0.00  0.00    +0.022 C 
ATOM     17  C   UNL     1      46.542  13.416  17.437  0.00  0.00    +0.009 C 
ATOM     18  C   UNL     1      47.899  12.826  17.041  0.00  0.00    -0.042 C 
ATOM     19  C   UNL     1      47.640  11.608  16.139  0.00  0.00    +0.016 C 
ATOM     20  C   UNL     1      48.731  13.849  16.281  0.00  0.00    +0.037 C 
ATOM     21  C   UNL     1      50.126  13.324  15.997  0.00  0.00    +0.017 C 
ATOM     22  C   UNL     1      50.847  12.667  17.158  0.00  0.00    -0.050 C 
ATOM     23  C   UNL     1      52.014  11.832  16.579  0.00  0.00    +0.007 C 
ATOM     24  C   UNL     1      51.458  13.701  18.108  0.00  0.00    +0.021 C 
ATOM     25  C   UNL     1      49.955  11.717  17.951  0.00  0.00    +0.010 C 
ATOM     26  C   UNL     1      48.629  12.380  18.307  0.00  0.00    +0.019 C 
ATOM     27  C   UNL     1      48.745  15.195  16.965  0.00  0.00    -0.088 C 
ATOM     28  C   UNL     1      49.834  15.905  16.942  0.00  0.00    -0.060 C 
ATOM     29  C   UNL     1      50.034  17.192  17.677  0.00  0.00    +0.054 C 
ATOM     30  C   UNL     1      48.714  17.914  17.963  0.00  0.00    +0.017 C 
ATOM     31  C   UNL     1      50.476  18.589  21.035  0.00  0.00    -0.038 C 
ATOM     32  C   UNL     1      50.949  17.135  21.093  0.00  0.00    +0.039 C 
ATOM     33  C   UNL     1      50.328  19.062  22.505  0.00  0.00    +0.022 C 
ENDROOT
BRANCH   4   3
ATOM      3  O   UNL     1      51.351  20.821  20.746  0.00  0.00    -0.338 OA
BRANCH   3   2
ATOM      1  C   UNL     1      52.967  21.532  22.472  0.00  0.00    +0.149 C 
ATOM      2  C   UNL     1      52.429  21.555  21.065  0.00  0.00    +0.456 C 
ATOM     34  O   UNL     1      52.967  22.235  20.223  0.00  0.00    -0.514 OA
ENDBRANCH   3   2
ENDBRANCH   4   3
TORSDOF 2
ENDMDL
