MODEL 1
REMARK VINA RESULT:      -7.2      0.000      0.000
REMARK  Name = ZINC85849252
REMARK  9 active torsions:
REMARK  status: ('A' for Active; 'I' for Inactive)
REMARK    1  A    between atoms: C1_1  and  N1_2
REMARK    2  A    between atoms: C6_7  and  O6_46
REMARK    3  A    between atoms: C7_8  and  O5_45
REMARK    4  A    between atoms: C22_25  and  O3_29
REMARK    5  A    between atoms: C23_26  and  O2_27
REMARK    6  A    between atoms: O2_27  and  C24_28
REMARK    7  A    between atoms: O3_29  and  C25_30
REMARK    8  A    between atoms: N2_33  and  C36_44
REMARK    9  A    between atoms: O6_46  and  C37_47
REMARK                            x       y       z     vdW  Elec       q    Type
REMARK                         _______ _______ _______ _____ _____    ______ ____
ROOT
ATOM      1  C   UNL     1      52.131  11.940  15.676  0.00  0.00    +0.186 C 
ATOM      2  N   UNL     1      51.668  13.134  14.956  0.00  0.00    -0.518 NA
ATOM      3  C   UNL     1      51.060  12.769  13.668  0.00  0.00    +0.214 C 
ATOM      4  C   UNL     1      49.972  11.725  13.905  0.00  0.00    +0.048 C 
ATOM      5  C   UNL     1      49.086  12.089  15.065  0.00  0.00    -0.017 A 
ATOM      6  C   UNL     1      47.883  11.417  15.230  0.00  0.00    -0.085 A 
ATOM      7  C   UNL     1      47.053  11.732  16.295  0.00  0.00    +0.133 A 
ATOM     10  C   UNL     1      47.424  12.706  17.216  0.00  0.00    +0.016 A 
ATOM     13  C   UNL     1      48.631  13.373  17.049  0.00  0.00    +0.151 A 
ATOM     14  O   UNL     1      49.073  14.281  17.935  0.00  0.00    -0.249 OA
ATOM     15  C   UNL     1      48.359  15.266  18.497  0.00  0.00    +0.120 A 
ATOM     16  C   UNL     1      47.984  16.388  17.772  0.00  0.00    +0.002 A 
ATOM     17  C   UNL     1      47.440  17.480  18.421  0.00  0.00    +0.025 A 
ATOM     18  C   UNL     1      47.261  17.452  19.790  0.00  0.00    -0.082 A 
ATOM     19  C   UNL     1      47.555  16.303  20.505  0.00  0.00    +0.015 A 
ATOM     20  C   UNL     1      46.719  18.651  20.523  0.00  0.00    +0.093 C 
ATOM     21  C   UNL     1      47.180  19.942  19.837  0.00  0.00    +0.245 C 
ATOM     22  N   UNL     1      46.177  20.968  20.051  0.00  0.00    -0.570 NA
ATOM     23  C   UNL     1      45.717  21.529  18.774  0.00  0.00    +0.202 C 
ATOM     24  C   UNL     1      46.442  22.014  21.012  0.00  0.00    +0.196 C 
ATOM     25  C   UNL     1      47.341  21.553  22.160  0.00  0.00    +0.094 C 
ATOM     26  C   UNL     1      48.632  21.049  21.551  0.00  0.00    -0.028 A 
ATOM     27  C   UNL     1      49.863  21.333  22.091  0.00  0.00    -0.059 A 
ATOM     28  C   UNL     1      51.017  20.929  21.431  0.00  0.00    +0.133 A 
ATOM     31  C   UNL     1      50.919  20.260  20.215  0.00  0.00    +0.029 A 
ATOM     34  C   UNL     1      49.665  19.993  19.670  0.00  0.00    +0.142 A 
ATOM     35  O   UNL     1      49.540  19.392  18.469  0.00  0.00    -0.259 OA
ATOM     36  C   UNL     1      50.001  18.152  18.205  0.00  0.00    +0.139 A 
ATOM     37  C   UNL     1      50.012  17.745  16.872  0.00  0.00    -0.017 A 
ATOM     38  C   UNL     1      50.437  16.483  16.532  0.00  0.00    +0.023 A 
ATOM     39  C   UNL     1      50.861  15.613  17.522  0.00  0.00    -0.062 A 
ATOM     40  C   UNL     1      50.874  16.013  18.841  0.00  0.00    +0.043 A 
ATOM     41  C   UNL     1      51.308  14.227  17.118  0.00  0.00    +0.104 C 
ATOM     42  C   UNL     1      50.444  17.284  19.189  0.00  0.00    -0.037 A 
ATOM     43  C   UNL     1      48.517  20.340  20.372  0.00  0.00    -0.136 A 
ATOM     44  C   UNL     1      48.099  15.212  19.862  0.00  0.00    +0.002 A 
ATOM     45  C   UNL     1      49.443  13.080  15.954  0.00  0.00    -0.158 A 
ATOM     46  C   UNL     1      50.696  13.888  15.757  0.00  0.00    +0.227 C 
ENDROOT
BRANCH   7   8
ATOM      8  O   UNL     1      45.866  11.083  16.441  0.00  0.00    -0.305 OA
ATOM      9  C   UNL     1      45.299  10.497  15.267  0.00  0.00    +0.241 C 
ENDBRANCH   7   8
BRANCH  10  11
ATOM     11  O   UNL     1      46.615  13.002  18.269  0.00  0.00    -0.471 OA
ATOM     12  H   UNL     1      45.691  12.746  18.140  0.00  0.00    +0.381 HD
ENDBRANCH  10  11
BRANCH  28  29
ATOM     29  O   UNL     1      52.238  21.187  21.972  0.00  0.00    -0.302 OA
ATOM     30  C   UNL     1      52.959  20.074  22.505  0.00  0.00    +0.243 C 
ENDBRANCH  28  29
BRANCH  31  32
ATOM     32  O   UNL     1      52.046  19.867  19.561  0.00  0.00    -0.312 OA
ATOM     33  C   UNL     1      52.594  20.779  18.609  0.00  0.00    +0.221 C 
ENDBRANCH  31  32
TORSDOF 4
ENDMDL
MODEL 2
REMARK VINA RESULT:      -7.1      3.237      8.746
REMARK  Name = ZINC85849252
REMARK  9 active torsions:
REMARK  status: ('A' for Active; 'I' for Inactive)
REMARK    1  A    between atoms: C1_1  and  N1_2
REMARK    2  A    between atoms: C6_7  and  O6_46
REMARK    3  A    between atoms: C7_8  and  O5_45
REMARK    4  A    between atoms: C22_25  and  O3_29
REMARK    5  A    between atoms: C23_26  and  O2_27
REMARK    6  A    between atoms: O2_27  and  C24_28
REMARK    7  A    between atoms: O3_29  and  C25_30
REMARK    8  A    between atoms: N2_33  and  C36_44
REMARK    9  A    between atoms: O6_46  and  C37_47
REMARK                            x       y       z     vdW  Elec       q    Type
REMARK                         _______ _______ _______ _____ _____    ______ ____
ROOT
ATOM      1  C   UNL     1      40.918  19.586  20.788  0.00  0.00    +0.186 C 
ATOM      2  N   UNL     1      41.477  19.186  19.490  0.00  0.00    -0.518 NA
ATOM      3  C   UNL     1      40.963  20.041  18.410  0.00  0.00    +0.214 C 
ATOM      4  C   UNL     1      41.209  21.504  18.768  0.00  0.00    +0.048 C 
ATOM      5  C   UNL     1      42.602  21.729  19.291  0.00  0.00    -0.017 A 
ATOM      6  C   UNL     1      43.086  23.026  19.381  0.00  0.00    -0.085 A 
ATOM      7  C   UNL     1      44.365  23.257  19.865  0.00  0.00    +0.133 A 
ATOM     10  C   UNL     1      45.165  22.199  20.282  0.00  0.00    +0.016 A 
ATOM     13  C   UNL     1      44.674  20.902  20.195  0.00  0.00    +0.151 A 
ATOM     14  O   UNL     1      45.373  19.843  20.636  0.00  0.00    -0.249 OA
ATOM     15  C   UNL     1      46.673  19.596  20.422  0.00  0.00    +0.120 A 
ATOM     16  C   UNL     1      47.133  19.184  19.181  0.00  0.00    +0.002 A 
ATOM     17  C   UNL     1      48.431  18.731  19.041  0.00  0.00    +0.025 A 
ATOM     18  C   UNL     1      49.273  18.695  20.135  0.00  0.00    -0.082 A 
ATOM     19  C   UNL     1      48.843  19.185  21.357  0.00  0.00    +0.015 A 
ATOM     20  C   UNL     1      50.674  18.156  20.015  0.00  0.00    +0.093 C 
ATOM     21  C   UNL     1      50.718  17.027  18.978  0.00  0.00    +0.245 C 
ATOM     22  N   UNL     1      52.034  17.003  18.370  0.00  0.00    -0.570 NA
ATOM     23  C   UNL     1      51.941  17.112  16.909  0.00  0.00    +0.202 C 
ATOM     24  C   UNL     1      52.963  15.965  18.755  0.00  0.00    +0.196 C 
ATOM     25  C   UNL     1      52.762  15.492  20.196  0.00  0.00    +0.094 C 
ATOM     26  C   UNL     1      51.336  15.003  20.318  0.00  0.00    -0.028 A 
ATOM     27  C   UNL     1      51.003  13.861  21.004  0.00  0.00    -0.059 A 
ATOM     28  C   UNL     1      49.689  13.406  20.996  0.00  0.00    +0.133 A 
ATOM     31  C   UNL     1      48.724  14.099  20.273  0.00  0.00    +0.029 A 
ATOM     34  C   UNL     1      49.077  15.247  19.567  0.00  0.00    +0.142 A 
ATOM     35  O   UNL     1      48.174  15.910  18.817  0.00  0.00    -0.259 OA
ATOM     36  C   UNL     1      47.057  16.474  19.320  0.00  0.00    +0.139 A 
ATOM     37  C   UNL     1      46.102  16.924  18.410  0.00  0.00    -0.017 A 
ATOM     38  C   UNL     1      44.955  17.539  18.850  0.00  0.00    +0.023 A 
ATOM     39  C   UNL     1      44.744  17.707  20.208  0.00  0.00    -0.062 A 
ATOM     40  C   UNL     1      45.673  17.246  21.117  0.00  0.00    +0.043 A 
ATOM     41  C   UNL     1      43.481  18.400  20.659  0.00  0.00    +0.104 C 
ATOM     42  C   UNL     1      46.834  16.628  20.678  0.00  0.00    -0.037 A 
ATOM     43  C   UNL     1      50.378  15.730  19.639  0.00  0.00    -0.136 A 
ATOM     44  C   UNL     1      47.550  19.638  21.502  0.00  0.00    +0.002 A 
ATOM     45  C   UNL     1      43.402  20.673  19.670  0.00  0.00    -0.158 A 
ATOM     46  C   UNL     1      42.944  19.250  19.505  0.00  0.00    +0.227 C 
ENDROOT
BRANCH   7   8
ATOM      8  O   UNL     1      44.841  24.530  19.931  0.00  0.00    -0.305 OA
ATOM      9  C   UNL     1      44.714  25.333  18.756  0.00  0.00    +0.241 C 
ENDBRANCH   7   8
BRANCH  10  11
ATOM     11  O   UNL     1      46.413  22.430  20.771  0.00  0.00    -0.471 OA
ATOM     12  H   UNL     1      46.557  22.082  21.663  0.00  0.00    +0.381 HD
ENDBRANCH  10  11
BRANCH  28  29
ATOM     29  O   UNL     1      49.349  12.289  21.692  0.00  0.00    -0.302 OA
ATOM     30  C   UNL     1      49.710  11.031  21.116  0.00  0.00    +0.243 C 
ENDBRANCH  28  29
BRANCH  31  32
ATOM     32  O   UNL     1      47.437  13.656  20.256  0.00  0.00    -0.312 OA
ATOM     33  C   UNL     1      47.048  12.835  19.154  0.00  0.00    +0.221 C 
ENDBRANCH  31  32
TORSDOF 4
ENDMDL
MODEL 3
REMARK VINA RESULT:      -6.8      3.560      6.298
REMARK  Name = ZINC85849252
REMARK  9 active torsions:
REMARK  status: ('A' for Active; 'I' for Inactive)
REMARK    1  A    between atoms: C1_1  and  N1_2
REMARK    2  A    between atoms: C6_7  and  O6_46
REMARK    3  A    between atoms: C7_8  and  O5_45
REMARK    4  A    between atoms: C22_25  and  O3_29
REMARK    5  A    between atoms: C23_26  and  O2_27
REMARK    6  A    between atoms: O2_27  and  C24_28
REMARK    7  A    between atoms: O3_29  and  C25_30
REMARK    8  A    between atoms: N2_33  and  C36_44
REMARK    9  A    between atoms: O6_46  and  C37_47
REMARK                            x       y       z     vdW  Elec       q    Type
REMARK                         _______ _______ _______ _____ _____    ______ ____
ROOT
ATOM      1  C   UNL     1      49.488  11.478  20.080  0.00  0.00    +0.186 C 
ATOM      2  N   UNL     1      49.337  12.247  21.322  0.00  0.00    -0.518 NA
ATOM      3  C   UNL     1      50.440  11.967  22.252  0.00  0.00    +0.214 C 
ATOM      4  C   UNL     1      51.769  12.195  21.538  0.00  0.00    +0.048 C 
ATOM      5  C   UNL     1      51.773  13.477  20.751  0.00  0.00    -0.017 A 
ATOM      6  C   UNL     1      52.981  13.982  20.291  0.00  0.00    -0.085 A 
ATOM      7  C   UNL     1      53.008  15.160  19.560  0.00  0.00    +0.133 A 
ATOM     10  C   UNL     1      51.828  15.833  19.263  0.00  0.00    +0.016 A 
ATOM     13  C   UNL     1      50.620  15.322  19.722  0.00  0.00    +0.151 A 
ATOM     14  O   UNL     1      49.442  15.893  19.419  0.00  0.00    -0.249 OA
ATOM     15  C   UNL     1      49.152  17.201  19.461  0.00  0.00    +0.120 A 
ATOM     16  C   UNL     1      48.984  17.863  20.668  0.00  0.00    +0.002 A 
ATOM     17  C   UNL     1      48.477  19.148  20.685  0.00  0.00    +0.025 A 
ATOM     18  C   UNL     1      48.144  19.777  19.502  0.00  0.00    -0.082 A 
ATOM     19  C   UNL     1      48.390  19.151  18.291  0.00  0.00    +0.015 A 
ATOM     20  C   UNL     1      47.542  21.157  19.502  0.00  0.00    +0.093 C 
ATOM     21  C   UNL     1      46.663  21.349  20.745  0.00  0.00    +0.245 C 
ATOM     22  N   UNL     1      46.673  22.751  21.112  0.00  0.00    -0.570 NA
ATOM     23  C   UNL     1      47.101  22.928  22.505  0.00  0.00    +0.202 C 
ATOM     24  C   UNL     1      45.510  23.559  20.820  0.00  0.00    +0.196 C 
ATOM     25  C   UNL     1      44.755  23.085  19.577  0.00  0.00    +0.094 C 
ATOM     26  C   UNL     1      44.358  21.644  19.811  0.00  0.00    -0.028 A 
ATOM     27  C   UNL     1      43.122  21.153  19.465  0.00  0.00    -0.059 A 
ATOM     28  C   UNL     1      42.778  19.848  19.796  0.00  0.00    +0.133 A 
ATOM     31  C   UNL     1      43.680  19.054  20.497  0.00  0.00    +0.029 A 
ATOM     34  C   UNL     1      44.924  19.567  20.856  0.00  0.00    +0.142 A 
ATOM     35  O   UNL     1      45.798  18.839  21.579  0.00  0.00    -0.259 OA
ATOM     36  C   UNL     1      46.321  17.669  21.157  0.00  0.00    +0.139 A 
ATOM     37  C   UNL     1      47.026  16.911  22.090  0.00  0.00    -0.017 A 
ATOM     38  C   UNL     1      47.615  15.724  21.722  0.00  0.00    +0.023 A 
ATOM     39  C   UNL     1      47.501  15.278  20.416  0.00  0.00    -0.062 A 
ATOM     40  C   UNL     1      46.788  16.011  19.491  0.00  0.00    +0.043 A 
ATOM     41  C   UNL     1      48.172  13.979  20.040  0.00  0.00    +0.104 C 
ATOM     42  C   UNL     1      46.195  17.210  19.857  0.00  0.00    -0.037 A 
ATOM     43  C   UNL     1      45.283  20.851  20.459  0.00  0.00    -0.136 A 
ATOM     44  C   UNL     1      48.895  17.869  18.268  0.00  0.00    +0.002 A 
ATOM     45  C   UNL     1      50.604  14.159  20.490  0.00  0.00    -0.158 A 
ATOM     46  C   UNL     1      49.287  13.689  21.046  0.00  0.00    +0.227 C 
ENDROOT
BRANCH   7   8
ATOM      8  O   UNL     1      54.197  15.660  19.129  0.00  0.00    -0.305 OA
ATOM      9  C   UNL     1      55.319  15.506  20.001  0.00  0.00    +0.241 C 
ENDBRANCH   7   8
BRANCH  10  11
ATOM     11  O   UNL     1      51.855  16.980  18.531  0.00  0.00    -0.471 OA
ATOM     12  H   UNL     1      52.707  17.437  18.547  0.00  0.00    +0.381 HD
ENDBRANCH  10  11
BRANCH  28  29
ATOM     29  O   UNL     1      41.565  19.349  19.437  0.00  0.00    -0.302 OA
ATOM     30  C   UNL     1      40.868  20.031  18.392  0.00  0.00    +0.243 C 
ENDBRANCH  28  29
BRANCH  31  32
ATOM     32  O   UNL     1      43.348  17.776  20.829  0.00  0.00    -0.312 OA
ATOM     33  C   UNL     1      42.821  17.564  22.140  0.00  0.00    +0.221 C 
ENDBRANCH  31  32
TORSDOF 4
ENDMDL
MODEL 4
REMARK VINA RESULT:      -5.7      2.132      8.507
REMARK  Name = ZINC85849252
REMARK  9 active torsions:
REMARK  status: ('A' for Active; 'I' for Inactive)
REMARK    1  A    between atoms: C1_1  and  N1_2
REMARK    2  A    between atoms: C6_7  and  O6_46
REMARK    3  A    between atoms: C7_8  and  O5_45
REMARK    4  A    between atoms: C22_25  and  O3_29
REMARK    5  A    between atoms: C23_26  and  O2_27
REMARK    6  A    between atoms: O2_27  and  C24_28
REMARK    7  A    between atoms: O3_29  and  C25_30
REMARK    8  A    between atoms: N2_33  and  C36_44
REMARK    9  A    between atoms: O6_46  and  C37_47
REMARK                            x       y       z     vdW  Elec       q    Type
REMARK                         _______ _______ _______ _____ _____    ______ ____
ROOT
ATOM      1  C   UNL     1      52.537  21.815  19.981  0.00  0.00    +0.186 C 
ATOM      2  N   UNL     1      52.633  20.511  20.651  0.00  0.00    -0.518 NA
ATOM      3  C   UNL     1      52.567  20.663  22.111  0.00  0.00    +0.214 C 
ATOM      4  C   UNL     1      51.317  21.460  22.477  0.00  0.00    +0.048 C 
ATOM      5  C   UNL     1      50.104  20.980  21.727  0.00  0.00    -0.017 A 
ATOM      6  C   UNL     1      48.846  21.385  22.150  0.00  0.00    -0.085 A 
ATOM      7  C   UNL     1      47.715  20.958  21.472  0.00  0.00    +0.133 A 
ATOM     10  C   UNL     1      47.829  20.140  20.352  0.00  0.00    +0.016 A 
ATOM     13  C   UNL     1      49.090  19.740  19.930  0.00  0.00    +0.151 A 
ATOM     14  O   UNL     1      49.271  19.001  18.823  0.00  0.00    -0.249 OA
ATOM     15  C   UNL     1      48.569  17.917  18.460  0.00  0.00    +0.120 A 
ATOM     16  C   UNL     1      48.733  16.703  19.109  0.00  0.00    +0.002 A 
ATOM     17  C   UNL     1      48.165  15.557  18.585  0.00  0.00    +0.025 A 
ATOM     18  C   UNL     1      47.428  15.622  17.418  0.00  0.00    -0.082 A 
ATOM     19  C   UNL     1      47.191  16.847  16.815  0.00  0.00    +0.015 A 
ATOM     20  C   UNL     1      46.844  14.378  16.802  0.00  0.00    +0.093 C 
ATOM     21  C   UNL     1      47.766  13.180  17.060  0.00  0.00    +0.245 C 
ATOM     22  N   UNL     1      46.960  11.976  17.121  0.00  0.00    -0.570 NA
ATOM     23  C   UNL     1      47.181  11.258  18.383  0.00  0.00    +0.202 C 
ATOM     24  C   UNL     1      46.975  11.067  15.997  0.00  0.00    +0.196 C 
ATOM     25  C   UNL     1      47.216  11.775  14.663  0.00  0.00    +0.094 C 
ATOM     26  C   UNL     1      48.534  12.510  14.772  0.00  0.00    -0.028 A 
ATOM     27  C   UNL     1      49.455  12.529  13.753  0.00  0.00    -0.059 A 
ATOM     28  C   UNL     1      50.690  13.135  13.947  0.00  0.00    +0.133 A 
ATOM     31  C   UNL     1      50.996  13.697  15.182  0.00  0.00    +0.029 A 
ATOM     34  C   UNL     1      50.061  13.657  16.214  0.00  0.00    +0.142 A 
ATOM     35  O   UNL     1      50.348  14.148  17.436  0.00  0.00    -0.259 OA
ATOM     36  C   UNL     1      50.655  15.441  17.666  0.00  0.00    +0.139 A 
ATOM     37  C   UNL     1      51.152  15.766  18.927  0.00  0.00    -0.017 A 
ATOM     38  C   UNL     1      51.454  17.069  19.242  0.00  0.00    +0.023 A 
ATOM     39  C   UNL     1      51.268  18.064  18.298  0.00  0.00    -0.062 A 
ATOM     40  C   UNL     1      50.797  17.751  17.041  0.00  0.00    +0.043 A 
ATOM     41  C   UNL     1      51.596  19.488  18.681  0.00  0.00    +0.104 C 
ATOM     42  C   UNL     1      50.487  16.438  16.719  0.00  0.00    -0.037 A 
ATOM     43  C   UNL     1      48.803  13.110  15.986  0.00  0.00    -0.136 A 
ATOM     44  C   UNL     1      47.756  17.991  17.334  0.00  0.00    +0.002 A 
ATOM     45  C   UNL     1      50.222  20.140  20.640  0.00  0.00    -0.158 A 
ATOM     46  C   UNL     1      51.561  19.611  20.206  0.00  0.00    +0.227 C 
ENDROOT
BRANCH   7   8
ATOM      8  O   UNL     1      46.484  21.343  21.904  0.00  0.00    -0.305 OA
ATOM      9  C   UNL     1      46.070  22.673  21.583  0.00  0.00    +0.241 C 
ENDBRANCH   7   8
BRANCH  10  11
ATOM     11  O   UNL     1      46.718  19.736  19.679  0.00  0.00    -0.471 OA
ATOM     12  H   UNL     1      46.842  18.925  19.165  0.00  0.00    +0.381 HD
ENDBRANCH  10  11
BRANCH  28  29
ATOM     29  O   UNL     1      51.597  13.177  12.935  0.00  0.00    -0.302 OA
ATOM     30  C   UNL     1      51.091  13.039  11.605  0.00  0.00    +0.243 C 
ENDBRANCH  28  29
BRANCH  31  32
ATOM     32  O   UNL     1      52.207  14.287  15.382  0.00  0.00    -0.312 OA
ATOM     33  C   UNL     1      52.611  15.275  14.434  0.00  0.00    +0.221 C 
ENDBRANCH  31  32
TORSDOF 4
ENDMDL
MODEL 5
REMARK VINA RESULT:      -5.2      4.168      7.175
REMARK  Name = ZINC85849252
REMARK  9 active torsions:
REMARK  status: ('A' for Active; 'I' for Inactive)
REMARK    1  A    between atoms: C1_1  and  N1_2
REMARK    2  A    between atoms: C6_7  and  O6_46
REMARK    3  A    between atoms: C7_8  and  O5_45
REMARK    4  A    between atoms: C22_25  and  O3_29
REMARK    5  A    between atoms: C23_26  and  O2_27
REMARK    6  A    between atoms: O2_27  and  C24_28
REMARK    7  A    between atoms: O3_29  and  C25_30
REMARK    8  A    between atoms: N2_33  and  C36_44
REMARK    9  A    between atoms: O6_46  and  C37_47
REMARK                            x       y       z     vdW  Elec       q    Type
REMARK                         _______ _______ _______ _____ _____    ______ ____
ROOT
ATOM      1  C   UNL     1      54.970  10.592  20.108  0.00  0.00    +0.186 C 
ATOM      2  N   UNL     1      54.256  11.103  21.286  0.00  0.00    -0.518 NA
ATOM      3  C   UNL     1      55.056  10.924  22.505  0.00  0.00    +0.214 C 
ATOM      4  C   UNL     1      56.435  11.545  22.297  0.00  0.00    +0.048 C 
ATOM      5  C   UNL     1      56.349  12.906  21.661  0.00  0.00    -0.017 A 
ATOM      6  C   UNL     1      57.467  13.727  21.674  0.00  0.00    -0.085 A 
ATOM      7  C   UNL     1      57.412  14.983  21.090  0.00  0.00    +0.133 A 
ATOM     10  C   UNL     1      56.247  15.424  20.470  0.00  0.00    +0.016 A 
ATOM     13  C   UNL     1      55.131  14.597  20.456  0.00  0.00    +0.151 A 
ATOM     14  O   UNL     1      53.997  14.939  19.824  0.00  0.00    -0.249 OA
ATOM     15  C   UNL     1      53.382  16.130  19.870  0.00  0.00    +0.120 A 
ATOM     16  C   UNL     1      52.690  16.539  21.000  0.00  0.00    +0.002 A 
ATOM     17  C   UNL     1      51.890  17.665  20.950  0.00  0.00    +0.025 A 
ATOM     18  C   UNL     1      51.784  18.387  19.777  0.00  0.00    -0.082 A 
ATOM     19  C   UNL     1      52.539  18.029  18.672  0.00  0.00    +0.015 A 
ATOM     20  C   UNL     1      50.877  19.585  19.686  0.00  0.00    +0.093 C 
ATOM     21  C   UNL     1      49.643  19.382  20.575  0.00  0.00    +0.245 C 
ATOM     22  N   UNL     1      49.181  20.677  21.035  0.00  0.00    -0.570 NA
ATOM     23  C   UNL     1      49.103  20.718  22.500  0.00  0.00    +0.202 C 
ATOM     24  C   UNL     1      47.996  21.249  20.436  0.00  0.00    +0.196 C 
ATOM     25  C   UNL     1      47.803  20.826  18.979  0.00  0.00    +0.094 C 
ATOM     26  C   UNL     1      47.738  19.315  18.950  0.00  0.00    -0.028 A 
ATOM     27  C   UNL     1      46.836  18.629  18.174  0.00  0.00    -0.059 A 
ATOM     28  C   UNL     1      46.755  17.245  18.266  0.00  0.00    +0.133 A 
ATOM     31  C   UNL     1      47.572  16.564  19.162  0.00  0.00    +0.029 A 
ATOM     34  C   UNL     1      48.472  17.271  19.956  0.00  0.00    +0.142 A 
ATOM     35  O   UNL     1      49.240  16.644  20.869  0.00  0.00    -0.259 OA
ATOM     36  C   UNL     1      50.148  15.698  20.554  0.00  0.00    +0.139 A 
ATOM     37  C   UNL     1      50.705  14.972  21.606  0.00  0.00    -0.017 A 
ATOM     38  C   UNL     1      51.662  14.015  21.362  0.00  0.00    +0.023 A 
ATOM     39  C   UNL     1      52.070  13.769  20.063  0.00  0.00    -0.062 A 
ATOM     40  C   UNL     1      51.510  14.467  19.014  0.00  0.00    +0.043 A 
ATOM     41  C   UNL     1      53.134  12.722  19.830  0.00  0.00    +0.104 C 
ATOM     42  C   UNL     1      50.547  15.435  19.254  0.00  0.00    -0.037 A 
ATOM     43  C   UNL     1      48.592  18.648  19.806  0.00  0.00    -0.136 A 
ATOM     44  C   UNL     1      53.338  16.907  18.718  0.00  0.00    +0.002 A 
ATOM     45  C   UNL     1      55.181  13.351  21.080  0.00  0.00    -0.158 A 
ATOM     46  C   UNL     1      53.924  12.524  21.124  0.00  0.00    +0.227 C 
ENDROOT
BRANCH   7   8
ATOM      8  O   UNL     1      58.506  15.791  21.123  0.00  0.00    -0.305 OA
ATOM      9  C   UNL     1      59.253  15.822  22.341  0.00  0.00    +0.241 C 
ENDBRANCH   7   8
BRANCH  10  11
ATOM     11  O   UNL     1      56.201  16.651  19.884  0.00  0.00    -0.471 OA
ATOM     12  H   UNL     1      55.338  17.084  19.944  0.00  0.00    +0.381 HD
ENDBRANCH  10  11
BRANCH  28  29
ATOM     29  O   UNL     1      45.879  16.559  17.483  0.00  0.00    -0.302 OA
ATOM     30  C   UNL     1      46.419  15.881  16.347  0.00  0.00    +0.243 C 
ENDBRANCH  28  29
BRANCH  31  32
ATOM     32  O   UNL     1      47.493  15.209  19.261  0.00  0.00    -0.312 OA
ATOM     33  C   UNL     1      46.540  14.680  20.184  0.00  0.00    +0.221 C 
ENDBRANCH  31  32
TORSDOF 4
ENDMDL
MODEL 6
REMARK VINA RESULT:      -4.9      2.316      4.575
REMARK  Name = ZINC85849252
REMARK  9 active torsions:
REMARK  status: ('A' for Active; 'I' for Inactive)
REMARK    1  A    between atoms: C1_1  and  N1_2
REMARK    2  A    between atoms: C6_7  and  O6_46
REMARK    3  A    between atoms: C7_8  and  O5_45
REMARK    4  A    between atoms: C22_25  and  O3_29
REMARK    5  A    between atoms: C23_26  and  O2_27
REMARK    6  A    between atoms: O2_27  and  C24_28
REMARK    7  A    between atoms: O3_29  and  C25_30
REMARK    8  A    between atoms: N2_33  and  C36_44
REMARK    9  A    between atoms: O6_46  and  C37_47
REMARK                            x       y       z     vdW  Elec       q    Type
REMARK                         _______ _______ _______ _____ _____    ______ ____
ROOT
ATOM      1  C   UNL     1      45.619  11.998  16.042  0.00  0.00    +0.186 C 
ATOM      2  N   UNL     1      46.336  11.758  17.301  0.00  0.00    -0.518 NA
ATOM      3  C   UNL     1      46.961  10.428  17.306  0.00  0.00    +0.214 C 
ATOM      4  C   UNL     1      47.828  10.277  16.059  0.00  0.00    +0.048 C 
ATOM      5  C   UNL     1      48.678  11.493  15.813  0.00  0.00    -0.017 A 
ATOM      6  C   UNL     1      49.729  11.410  14.910  0.00  0.00    -0.085 A 
ATOM      7  C   UNL     1      50.522  12.520  14.664  0.00  0.00    +0.133 A 
ATOM     10  C   UNL     1      50.263  13.729  15.301  0.00  0.00    +0.016 A 
ATOM     13  C   UNL     1      49.208  13.809  16.202  0.00  0.00    +0.151 A 
ATOM     14  O   UNL     1      48.870  14.961  16.804  0.00  0.00    -0.249 OA
ATOM     15  C   UNL     1      49.705  15.843  17.372  0.00  0.00    +0.120 A 
ATOM     16  C   UNL     1      50.323  15.573  18.584  0.00  0.00    +0.002 A 
ATOM     17  C   UNL     1      51.003  16.574  19.250  0.00  0.00    +0.025 A 
ATOM     18  C   UNL     1      51.074  17.842  18.707  0.00  0.00    -0.082 A 
ATOM     19  C   UNL     1      50.531  18.093  17.458  0.00  0.00    +0.015 A 
ATOM     20  C   UNL     1      51.766  18.960  19.442  0.00  0.00    +0.093 C 
ATOM     21  C   UNL     1      51.591  18.784  20.956  0.00  0.00    +0.245 C 
ATOM     22  N   UNL     1      52.740  19.357  21.628  0.00  0.00    -0.570 NA
ATOM     23  C   UNL     1      53.383  18.371  22.505  0.00  0.00    +0.202 C 
ATOM     24  C   UNL     1      52.596  20.631  22.297  0.00  0.00    +0.196 C 
ATOM     25  C   UNL     1      51.549  21.531  21.640  0.00  0.00    +0.094 C 
ATOM     26  C   UNL     1      50.237  20.777  21.640  0.00  0.00    -0.028 A 
ATOM     27  C   UNL     1      49.040  21.377  21.944  0.00  0.00    -0.059 A 
ATOM     28  C   UNL     1      47.883  20.612  22.027  0.00  0.00    +0.133 A 
ATOM     31  C   UNL     1      47.949  19.237  21.826  0.00  0.00    +0.029 A 
ATOM     34  C   UNL     1      49.172  18.637  21.535  0.00  0.00    +0.142 A 
ATOM     35  O   UNL     1      49.275  17.301  21.385  0.00  0.00    -0.259 OA
ATOM     36  C   UNL     1      48.623  16.606  20.431  0.00  0.00    +0.139 A 
ATOM     37  C   UNL     1      48.637  15.215  20.531  0.00  0.00    -0.017 A 
ATOM     38  C   UNL     1      48.022  14.442  19.576  0.00  0.00    +0.023 A 
ATOM     39  C   UNL     1      47.380  15.049  18.511  0.00  0.00    -0.062 A 
ATOM     40  C   UNL     1      47.343  16.424  18.414  0.00  0.00    +0.043 A 
ATOM     41  C   UNL     1      46.726  14.171  17.470  0.00  0.00    +0.104 C 
ATOM     42  C   UNL     1      47.964  17.209  19.373  0.00  0.00    -0.037 A 
ATOM     43  C   UNL     1      50.310  19.422  21.386  0.00  0.00    -0.136 A 
ATOM     44  C   UNL     1      49.852  17.098  16.790  0.00  0.00    +0.002 A 
ATOM     45  C   UNL     1      48.439  12.678  16.475  0.00  0.00    -0.158 A 
ATOM     46  C   UNL     1      47.365  12.782  17.524  0.00  0.00    +0.227 C 
ENDROOT
BRANCH   7   8
ATOM      8  O   UNL     1      51.562  12.426  13.792  0.00  0.00    -0.305 OA
ATOM      9  C   UNL     1      51.267  12.617  12.407  0.00  0.00    +0.241 C 
ENDBRANCH   7   8
BRANCH  10  11
ATOM     11  O   UNL     1      51.034  14.821  15.046  0.00  0.00    -0.471 OA
ATOM     12  H   UNL     1      50.835  15.583  15.608  0.00  0.00    +0.381 HD
ENDBRANCH  10  11
BRANCH  28  29
ATOM     29  O   UNL     1      46.691  21.205  22.305  0.00  0.00    -0.302 OA
ATOM     30  C   UNL     1      46.477  22.513  21.770  0.00  0.00    +0.243 C 
ENDBRANCH  28  29
BRANCH  31  32
ATOM     32  O   UNL     1      46.821  18.481  21.912  0.00  0.00    -0.312 OA
ATOM     33  C   UNL     1      45.723  18.856  21.079  0.00  0.00    +0.221 C 
ENDBRANCH  31  32
TORSDOF 4
ENDMDL
MODEL 7
REMARK VINA RESULT:      -3.3      2.436      8.564
REMARK  Name = ZINC85849252
REMARK  9 active torsions:
REMARK  status: ('A' for Active; 'I' for Inactive)
REMARK    1  A    between atoms: C1_1  and  N1_2
REMARK    2  A    between atoms: C6_7  and  O6_46
REMARK    3  A    between atoms: C7_8  and  O5_45
REMARK    4  A    between atoms: C22_25  and  O3_29
REMARK    5  A    between atoms: C23_26  and  O2_27
REMARK    6  A    between atoms: O2_27  and  C24_28
REMARK    7  A    between atoms: O3_29  and  C25_30
REMARK    8  A    between atoms: N2_33  and  C36_44
REMARK    9  A    between atoms: O6_46  and  C37_47
REMARK                            x       y       z     vdW  Elec       q    Type
REMARK                         _______ _______ _______ _____ _____    ______ ____
ROOT
ATOM      1  C   UNL     1      52.971  21.876  19.900  0.00  0.00    +0.186 C 
ATOM      2  N   UNL     1      52.851  20.723  20.803  0.00  0.00    -0.518 NA
ATOM      3  C   UNL     1      52.995  21.136  22.206  0.00  0.00    +0.214 C 
ATOM      4  C   UNL     1      52.009  22.263  22.502  0.00  0.00    +0.048 C 
ATOM      5  C   UNL     1      50.639  21.970  21.954  0.00  0.00    -0.017 A 
ATOM      6  C   UNL     1      49.564  22.736  22.384  0.00  0.00    -0.085 A 
ATOM      7  C   UNL     1      48.293  22.486  21.889  0.00  0.00    +0.133 A 
ATOM     10  C   UNL     1      48.086  21.485  20.946  0.00  0.00    +0.016 A 
ATOM     13  C   UNL     1      49.165  20.724  20.516  0.00  0.00    +0.151 A 
ATOM     14  O   UNL     1      49.041  19.783  19.565  0.00  0.00    -0.249 OA
ATOM     15  C   UNL     1      48.076  18.857  19.475  0.00  0.00    +0.120 A 
ATOM     16  C   UNL     1      48.039  17.770  20.335  0.00  0.00    +0.002 A 
ATOM     17  C   UNL     1      47.170  16.724  20.089  0.00  0.00    +0.025 A 
ATOM     18  C   UNL     1      46.332  16.764  18.992  0.00  0.00    -0.082 A 
ATOM     19  C   UNL     1      46.306  17.887  18.180  0.00  0.00    +0.015 A 
ATOM     20  C   UNL     1      45.415  15.612  18.677  0.00  0.00    +0.093 C 
ATOM     21  C   UNL     1      46.068  14.289  19.094  0.00  0.00    +0.245 C 
ATOM     22  N   UNL     1      45.026  13.346  19.450  0.00  0.00    -0.570 NA
ATOM     23  C   UNL     1      45.229  12.825  20.807  0.00  0.00    +0.202 C 
ATOM     24  C   UNL     1      44.701  12.281  18.528  0.00  0.00    +0.196 C 
ATOM     25  C   UNL     1      44.934  12.669  17.067  0.00  0.00    +0.094 C 
ATOM     26  C   UNL     1      46.387  13.068  16.930  0.00  0.00    -0.028 A 
ATOM     27  C   UNL     1      47.159  12.688  15.860  0.00  0.00    -0.059 A 
ATOM     28  C   UNL     1      48.514  12.999  15.838  0.00  0.00    +0.133 A 
ATOM     31  C   UNL     1      49.083  13.674  16.913  0.00  0.00    +0.029 A 
ATOM     34  C   UNL     1      48.293  14.041  18.000  0.00  0.00    +0.142 A 
ATOM     35  O   UNL     1      48.827  14.651  19.077  0.00  0.00    -0.259 OA
ATOM     36  C   UNL     1      49.442  15.850  19.025  0.00  0.00    +0.139 A 
ATOM     37  C   UNL     1      50.147  16.256  20.157  0.00  0.00    -0.017 A 
ATOM     38  C   UNL     1      50.769  17.481  20.188  0.00  0.00    +0.023 A 
ATOM     39  C   UNL     1      50.700  18.314  19.085  0.00  0.00    -0.062 A 
ATOM     40  C   UNL     1      50.023  17.912  17.952  0.00  0.00    +0.043 A 
ATOM     41  C   UNL     1      51.382  19.660  19.156  0.00  0.00    +0.104 C 
ATOM     42  C   UNL     1      49.391  16.679  17.917  0.00  0.00    -0.037 A 
ATOM     43  C   UNL     1      46.927  13.785  17.979  0.00  0.00    -0.136 A 
ATOM     44  C   UNL     1      47.172  18.931  18.421  0.00  0.00    +0.002 A 
ATOM     45  C   UNL     1      50.434  20.953  21.047  0.00  0.00    -0.158 A 
ATOM     46  C   UNL     1      51.559  20.048  20.625  0.00  0.00    +0.227 C 
ENDROOT
BRANCH   7   8
ATOM      8  O   UNL     1      47.241  23.227  22.329  0.00  0.00    -0.305 OA
ATOM      9  C   UNL     1      47.457  24.632  22.487  0.00  0.00    +0.241 C 
ENDBRANCH   7   8
BRANCH  10  11
ATOM     11  O   UNL     1      46.840  21.253  20.451  0.00  0.00    -0.471 OA
ATOM     12  H   UNL     1      46.139  21.288  21.116  0.00  0.00    +0.381 HD
ENDBRANCH  10  11
BRANCH  28  29
ATOM     29  O   UNL     1      49.279  12.644  14.772  0.00  0.00    -0.302 OA
ATOM     30  C   UNL     1      48.653  12.671  13.487  0.00  0.00    +0.243 C 
ENDBRANCH  28  29
BRANCH  31  32
ATOM     32  O   UNL     1      50.410  13.977  16.901  0.00  0.00    -0.312 OA
ATOM     33  C   UNL     1      51.286  13.081  17.587  0.00  0.00    +0.221 C 
ENDBRANCH  31  32
TORSDOF 4
ENDMDL
