MODEL 1
REMARK VINA RESULT:      -5.6      0.000      0.000
REMARK  Name = ZINC00607790
REMARK  10 active torsions:
REMARK  status: ('A' for Active; 'I' for Inactive)
REMARK    1  A    between atoms: C1_1  and  C2_2
REMARK    2  A    between atoms: N1_4  and  C3_5
REMARK    3  A    between atoms: C8_11  and  O6_29
REMARK    4  A    between atoms: C9_12  and  O5_27
REMARK    5  A    between atoms: C10_13  and  O4_25
REMARK    6  A    between atoms: C16_20  and  O3_23
REMARK    7  A    between atoms: O3_23  and  C19_24
REMARK    8  A    between atoms: O4_25  and  C20_26
REMARK    9  A    between atoms: O5_27  and  C21_28
REMARK   10  A    between atoms: O6_29  and  C22_30
REMARK                            x       y       z     vdW  Elec       q    Type
REMARK                         _______ _______ _______ _____ _____    ______ ____
ROOT
ATOM      5  C   UNL     1      47.233  17.441  19.838  0.00  0.00    +0.277 C 
ATOM      6  C   UNL     1      46.481  16.960  18.613  0.00  0.00    +0.051 C 
ATOM      7  C   UNL     1      46.188  18.116  17.660  0.00  0.00    +0.095 C 
ATOM      8  C   UNL     1      45.695  19.306  18.442  0.00  0.00    -0.023 A 
ATOM      9  C   UNL     1      44.354  19.629  18.442  0.00  0.00    -0.054 A 
ATOM     10  C   UNL     1      43.905  20.733  19.155  0.00  0.00    +0.131 A 
ATOM     13  C   UNL     1      44.802  21.520  19.870  0.00  0.00    +0.047 A 
ATOM     16  C   UNL     1      46.152  21.198  19.877  0.00  0.00    +0.138 A 
ATOM     19  C   UNL     1      46.597  20.083  19.162  0.00  0.00    -0.101 A 
ATOM     20  C   UNL     1      48.045  19.716  19.188  0.00  0.00    -0.058 A 
ATOM     21  C   UNL     1      48.940  20.723  18.937  0.00  0.00    +0.112 A 
ATOM     22  C   UNL     1      50.283  20.747  18.839  0.00  0.00    -0.056 A 
ATOM     23  C   UNL     1      51.164  19.715  18.943  0.00  0.00    +0.104 A 
ATOM     26  C   UNL     1      50.828  18.389  19.186  0.00  0.00    +0.392 A 
ATOM     27  O   UNL     1      51.757  17.592  19.169  0.00  0.00    -0.489 OA
ATOM     28  C   UNL     1      49.595  17.857  19.441  0.00  0.00    -0.078 A 
ATOM     29  C   UNL     1      48.360  18.386  19.469  0.00  0.00    +0.026 A 
ENDROOT
BRANCH   5   3
ATOM      1  C   UNL     1      47.829  14.686  22.428  0.00  0.00    +0.100 C 
ATOM      2  C   UNL     1      47.253  15.878  21.707  0.00  0.00    +0.514 C 
ATOM      3  N   UNL     1      47.792  16.283  20.540  0.00  0.00    -0.731 N 
ATOM      4  H   UNL     1      48.549  15.806  20.163  0.00  0.00    +0.406 HD
ATOM     30  O   UNL     1      46.308  16.473  22.177  0.00  0.00    -0.537 OA
ENDBRANCH   5   3
BRANCH  10  11
ATOM     11  O   UNL     1      42.583  21.048  19.153  0.00  0.00    -0.302 OA
ATOM     12  C   UNL     1      41.708  20.169  18.440  0.00  0.00    +0.245 C 
ENDBRANCH  10  11
BRANCH  13  14
ATOM     14  O   UNL     1      44.356  22.605  20.561  0.00  0.00    -0.312 OA
ATOM     15  C   UNL     1      44.445  23.872  19.906  0.00  0.00    +0.221 C 
ENDBRANCH  13  14
BRANCH  16  17
ATOM     17  O   UNL     1      47.035  21.963  20.572  0.00  0.00    -0.320 OA
ATOM     18  C   UNL     1      47.120  21.738  21.981  0.00  0.00    +0.234 C 
ENDBRANCH  16  17
BRANCH  23  24
ATOM     24  O   UNL     1      52.481  20.006  18.798  0.00  0.00    -0.283 OA
ATOM     25  C   UNL     1      52.957  21.192  19.436  0.00  0.00    +0.253 C 
ENDBRANCH  23  24
TORSDOF 5
ENDMDL
MODEL 2
REMARK VINA RESULT:      -5.5      2.888      6.300
REMARK  Name = ZINC00607790
REMARK  10 active torsions:
REMARK  status: ('A' for Active; 'I' for Inactive)
REMARK    1  A    between atoms: C1_1  and  C2_2
REMARK    2  A    between atoms: N1_4  and  C3_5
REMARK    3  A    between atoms: C8_11  and  O6_29
REMARK    4  A    between atoms: C9_12  and  O5_27
REMARK    5  A    between atoms: C10_13  and  O4_25
REMARK    6  A    between atoms: C16_20  and  O3_23
REMARK    7  A    between atoms: O3_23  and  C19_24
REMARK    8  A    between atoms: O4_25  and  C20_26
REMARK    9  A    between atoms: O5_27  and  C21_28
REMARK   10  A    between atoms: O6_29  and  C22_30
REMARK                            x       y       z     vdW  Elec       q    Type
REMARK                         _______ _______ _______ _____ _____    ______ ____
ROOT
ATOM      5  C   UNL     1      43.025  19.268  20.415  0.00  0.00    +0.277 C 
ATOM      6  C   UNL     1      42.701  18.307  21.542  0.00  0.00    +0.051 C 
ATOM      7  C   UNL     1      43.959  17.597  22.036  0.00  0.00    +0.095 C 
ATOM      8  C   UNL     1      44.784  17.146  20.858  0.00  0.00    -0.023 A 
ATOM      9  C   UNL     1      44.791  15.819  20.484  0.00  0.00    -0.054 A 
ATOM     10  C   UNL     1      45.561  15.404  19.405  0.00  0.00    +0.131 A 
ATOM     13  C   UNL     1      46.330  16.322  18.697  0.00  0.00    +0.047 A 
ATOM     16  C   UNL     1      46.324  17.661  19.066  0.00  0.00    +0.138 A 
ATOM     19  C   UNL     1      45.543  18.072  20.150  0.00  0.00    -0.101 A 
ATOM     20  C   UNL     1      45.512  19.515  20.534  0.00  0.00    -0.058 A 
ATOM     21  C   UNL     1      46.723  20.144  20.665  0.00  0.00    +0.112 A 
ATOM     22  C   UNL     1      47.068  21.394  21.030  0.00  0.00    -0.056 A 
ATOM     23  C   UNL     1      46.264  22.422  21.416  0.00  0.00    +0.104 A 
ATOM     26  C   UNL     1      44.877  22.373  21.502  0.00  0.00    +0.392 A 
ATOM     27  O   UNL     1      44.335  23.378  21.943  0.00  0.00    -0.489 OA
ATOM     28  C   UNL     1      44.039  21.349  21.160  0.00  0.00    -0.078 A 
ATOM     29  C   UNL     1      44.257  20.097  20.722  0.00  0.00    +0.026 A 
ENDROOT
BRANCH   5   3
ATOM      1  C   UNL     1      40.329  21.418  18.753  0.00  0.00    +0.100 C 
ATOM      2  C   UNL     1      41.502  20.495  18.962  0.00  0.00    +0.514 C 
ATOM      3  N   UNL     1      41.886  20.166  20.212  0.00  0.00    -0.731 N 
ATOM      4  H   UNL     1      41.406  20.523  20.976  0.00  0.00    +0.406 HD
ATOM     30  O   UNL     1      42.101  20.048  18.007  0.00  0.00    -0.537 OA
ENDBRANCH   5   3
BRANCH  10  11
ATOM     11  O   UNL     1      45.565  14.096  19.039  0.00  0.00    -0.302 OA
ATOM     12  C   UNL     1      46.472  13.232  19.728  0.00  0.00    +0.245 C 
ENDBRANCH  10  11
BRANCH  13  14
ATOM     14  O   UNL     1      47.087  15.908  17.645  0.00  0.00    -0.312 OA
ATOM     15  C   UNL     1      46.458  15.887  16.362  0.00  0.00    +0.221 C 
ENDBRANCH  13  14
BRANCH  16  17
ATOM     17  O   UNL     1      47.074  18.564  18.380  0.00  0.00    -0.320 OA
ATOM     18  C   UNL     1      48.495  18.428  18.470  0.00  0.00    +0.234 C 
ENDBRANCH  16  17
BRANCH  23  24
ATOM     24  O   UNL     1      46.865  23.592  21.743  0.00  0.00    -0.283 OA
ATOM     25  C   UNL     1      48.071  23.511  22.505  0.00  0.00    +0.253 C 
ENDBRANCH  23  24
TORSDOF 5
ENDMDL
MODEL 3
REMARK VINA RESULT:      -5.5      2.287      6.551
REMARK  Name = ZINC00607790
REMARK  10 active torsions:
REMARK  status: ('A' for Active; 'I' for Inactive)
REMARK    1  A    between atoms: C1_1  and  C2_2
REMARK    2  A    between atoms: N1_4  and  C3_5
REMARK    3  A    between atoms: C8_11  and  O6_29
REMARK    4  A    between atoms: C9_12  and  O5_27
REMARK    5  A    between atoms: C10_13  and  O4_25
REMARK    6  A    between atoms: C16_20  and  O3_23
REMARK    7  A    between atoms: O3_23  and  C19_24
REMARK    8  A    between atoms: O4_25  and  C20_26
REMARK    9  A    between atoms: O5_27  and  C21_28
REMARK   10  A    between atoms: O6_29  and  C22_30
REMARK                            x       y       z     vdW  Elec       q    Type
REMARK                         _______ _______ _______ _____ _____    ______ ____
ROOT
ATOM      5  C   UNL     1      47.718  18.320  18.681  0.00  0.00    +0.277 C 
ATOM      6  C   UNL     1      47.875  17.759  17.282  0.00  0.00    +0.051 C 
ATOM      7  C   UNL     1      46.663  16.918  16.888  0.00  0.00    +0.095 C 
ATOM      8  C   UNL     1      46.275  16.020  18.035  0.00  0.00    -0.023 A 
ATOM      9  C   UNL     1      46.585  14.676  17.999  0.00  0.00    -0.054 A 
ATOM     10  C   UNL     1      46.216  13.849  19.052  0.00  0.00    +0.131 A 
ATOM     13  C   UNL     1      45.531  14.367  20.146  0.00  0.00    +0.047 A 
ATOM     16  C   UNL     1      45.218  15.719  20.189  0.00  0.00    +0.138 A 
ATOM     19  C   UNL     1      45.597  16.547  19.129  0.00  0.00    -0.101 A 
ATOM     20  C   UNL     1      45.288  18.008  19.183  0.00  0.00    -0.058 A 
ATOM     21  C   UNL     1      44.001  18.353  19.508  0.00  0.00    +0.112 A 
ATOM     22  C   UNL     1      43.371  19.540  19.606  0.00  0.00    -0.056 A 
ATOM     23  C   UNL     1      43.862  20.787  19.370  0.00  0.00    +0.104 A 
ATOM     26  C   UNL     1      45.161  21.081  18.974  0.00  0.00    +0.392 A 
ATOM     27  O   UNL     1      45.392  22.260  18.737  0.00  0.00    -0.489 OA
ATOM     28  C   UNL     1      46.216  20.227  18.813  0.00  0.00    -0.078 A 
ATOM     29  C   UNL     1      46.331  18.891  18.904  0.00  0.00    +0.026 A 
ENDROOT
BRANCH   5   3
ATOM      1  C   UNL     1      50.836  20.228  19.818  0.00  0.00    +0.100 C 
ATOM      2  C   UNL     1      49.817  19.137  19.611  0.00  0.00    +0.514 C 
ATOM      3  N   UNL     1      48.708  19.380  18.884  0.00  0.00    -0.731 N 
ATOM      4  H   UNL     1      48.567  20.257  18.493  0.00  0.00    +0.406 HD
ATOM     30  O   UNL     1      49.993  18.041  20.099  0.00  0.00    -0.537 OA
ENDBRANCH   5   3
BRANCH  10  11
ATOM     11  O   UNL     1      46.525  12.526  19.013  0.00  0.00    -0.302 OA
ATOM     12  C   UNL     1      46.719  11.943  17.722  0.00  0.00    +0.245 C 
ENDBRANCH  10  11
BRANCH  13  14
ATOM     14  O   UNL     1      45.166  13.550  21.171  0.00  0.00    -0.312 OA
ATOM     15  C   UNL     1      46.166  13.249  22.147  0.00  0.00    +0.221 C 
ENDBRANCH  13  14
BRANCH  16  17
ATOM     17  O   UNL     1      44.547  16.233  21.254  0.00  0.00    -0.320 OA
ATOM     18  C   UNL     1      45.332  16.675  22.364  0.00  0.00    +0.234 C 
ENDBRANCH  16  17
BRANCH  23  24
ATOM     24  O   UNL     1      43.012  21.830  19.537  0.00  0.00    -0.283 OA
ATOM     25  C   UNL     1      41.707  21.700  18.970  0.00  0.00    +0.253 C 
ENDBRANCH  23  24
TORSDOF 5
ENDMDL
MODEL 4
REMARK VINA RESULT:      -5.1      2.378      5.575
REMARK  Name = ZINC00607790
REMARK  10 active torsions:
REMARK  status: ('A' for Active; 'I' for Inactive)
REMARK    1  A    between atoms: C1_1  and  C2_2
REMARK    2  A    between atoms: N1_4  and  C3_5
REMARK    3  A    between atoms: C8_11  and  O6_29
REMARK    4  A    between atoms: C9_12  and  O5_27
REMARK    5  A    between atoms: C10_13  and  O4_25
REMARK    6  A    between atoms: C16_20  and  O3_23
REMARK    7  A    between atoms: O3_23  and  C19_24
REMARK    8  A    between atoms: O4_25  and  C20_26
REMARK    9  A    between atoms: O5_27  and  C21_28
REMARK   10  A    between atoms: O6_29  and  C22_30
REMARK                            x       y       z     vdW  Elec       q    Type
REMARK                         _______ _______ _______ _____ _____    ______ ____
ROOT
ATOM      5  C   UNL     1      46.992  19.509  20.179  0.00  0.00    +0.277 C 
ATOM      6  C   UNL     1      47.119  19.249  21.666  0.00  0.00    +0.051 C 
ATOM      7  C   UNL     1      47.799  17.908  21.934  0.00  0.00    +0.095 C 
ATOM      8  C   UNL     1      47.226  16.857  21.019  0.00  0.00    -0.023 A 
ATOM      9  C   UNL     1      46.330  15.928  21.505  0.00  0.00    -0.054 A 
ATOM     10  C   UNL     1      45.812  14.953  20.663  0.00  0.00    +0.131 A 
ATOM     13  C   UNL     1      46.192  14.906  19.326  0.00  0.00    +0.047 A 
ATOM     16  C   UNL     1      47.091  15.840  18.828  0.00  0.00    +0.138 A 
ATOM     19  C   UNL     1      47.604  16.822  19.681  0.00  0.00    -0.101 A 
ATOM     20  C   UNL     1      48.550  17.847  19.145  0.00  0.00    -0.058 A 
ATOM     21  C   UNL     1      49.605  17.383  18.402  0.00  0.00    +0.112 A 
ATOM     22  C   UNL     1      50.649  17.999  17.815  0.00  0.00    -0.056 A 
ATOM     23  C   UNL     1      50.972  19.321  17.821  0.00  0.00    +0.104 A 
ATOM     26  C   UNL     1      50.250  20.325  18.456  0.00  0.00    +0.392 A 
ATOM     27  O   UNL     1      50.743  21.444  18.412  0.00  0.00    -0.489 OA
ATOM     28  C   UNL     1      49.063  20.226  19.126  0.00  0.00    -0.078 A 
ATOM     29  C   UNL     1      48.276  19.183  19.441  0.00  0.00    +0.026 A 
ENDROOT
BRANCH   5   3
ATOM      1  C   UNL     1      45.063  22.740  19.479  0.00  0.00    +0.100 C 
ATOM      2  C   UNL     1      45.397  21.287  19.695  0.00  0.00    +0.514 C 
ATOM      3  N   UNL     1      46.666  20.921  19.967  0.00  0.00    -0.731 N 
ATOM      4  H   UNL     1      47.363  21.594  20.024  0.00  0.00    +0.406 HD
ATOM     30  O   UNL     1      44.526  20.446  19.625  0.00  0.00    -0.537 OA
ENDBRANCH   5   3
BRANCH  10  11
ATOM     11  O   UNL     1      44.929  14.040  21.146  0.00  0.00    -0.302 OA
ATOM     12  C   UNL     1      45.357  13.252  22.260  0.00  0.00    +0.245 C 
ENDBRANCH  10  11
BRANCH  13  14
ATOM     14  O   UNL     1      45.686  13.944  18.507  0.00  0.00    -0.312 OA
ATOM     15  C   UNL     1      46.425  12.725  18.404  0.00  0.00    +0.221 C 
ENDBRANCH  13  14
BRANCH  16  17
ATOM     17  O   UNL     1      47.469  15.800  17.523  0.00  0.00    -0.320 OA
ATOM     18  C   UNL     1      46.600  16.426  16.576  0.00  0.00    +0.234 C 
ENDBRANCH  16  17
BRANCH  23  24
ATOM     24  O   UNL     1      52.091  19.690  17.150  0.00  0.00    -0.283 OA
ATOM     25  C   UNL     1      52.082  19.522  15.731  0.00  0.00    +0.253 C 
ENDBRANCH  23  24
TORSDOF 5
ENDMDL
MODEL 5
REMARK VINA RESULT:      -5.0      2.009      2.107
REMARK  Name = ZINC00607790
REMARK  10 active torsions:
REMARK  status: ('A' for Active; 'I' for Inactive)
REMARK    1  A    between atoms: C1_1  and  C2_2
REMARK    2  A    between atoms: N1_4  and  C3_5
REMARK    3  A    between atoms: C8_11  and  O6_29
REMARK    4  A    between atoms: C9_12  and  O5_27
REMARK    5  A    between atoms: C10_13  and  O4_25
REMARK    6  A    between atoms: C16_20  and  O3_23
REMARK    7  A    between atoms: O3_23  and  C19_24
REMARK    8  A    between atoms: O4_25  and  C20_26
REMARK    9  A    between atoms: O5_27  and  C21_28
REMARK   10  A    between atoms: O6_29  and  C22_30
REMARK                            x       y       z     vdW  Elec       q    Type
REMARK                         _______ _______ _______ _____ _____    ______ ____
ROOT
ATOM      5  C   UNL     1      47.605  16.471  18.862  0.00  0.00    +0.277 C 
ATOM      6  C   UNL     1      46.441  16.448  17.892  0.00  0.00    +0.051 C 
ATOM      7  C   UNL     1      45.911  17.857  17.636  0.00  0.00    +0.095 C 
ATOM      8  C   UNL     1      45.806  18.604  18.941  0.00  0.00    -0.023 A 
ATOM      9  C   UNL     1      44.576  18.794  19.535  0.00  0.00    -0.054 A 
ATOM     10  C   UNL     1      44.481  19.493  20.731  0.00  0.00    +0.131 A 
ATOM     13  C   UNL     1      45.623  20.008  21.336  0.00  0.00    +0.047 A 
ATOM     16  C   UNL     1      46.865  19.817  20.745  0.00  0.00    +0.138 A 
ATOM     19  C   UNL     1      46.954  19.108  19.544  0.00  0.00    -0.101 A 
ATOM     20  C   UNL     1      48.290  18.876  18.918  0.00  0.00    -0.058 A 
ATOM     21  C   UNL     1      49.107  19.970  18.788  0.00  0.00    +0.112 A 
ATOM     22  C   UNL     1      50.329  20.137  18.246  0.00  0.00    -0.056 A 
ATOM     23  C   UNL     1      51.118  19.219  17.623  0.00  0.00    +0.104 A 
ATOM     26  C   UNL     1      50.799  17.881  17.427  0.00  0.00    +0.392 A 
ATOM     27  O   UNL     1      51.606  17.231  16.777  0.00  0.00    -0.489 OA
ATOM     28  C   UNL     1      49.701  17.195  17.865  0.00  0.00    -0.078 A 
ATOM     29  C   UNL     1      48.593  17.571  18.527  0.00  0.00    +0.026 A 
ENDROOT
BRANCH   5   3
ATOM      1  C   UNL     1      48.813  12.946  19.738  0.00  0.00    +0.100 C 
ATOM      2  C   UNL     1      48.104  14.275  19.792  0.00  0.00    +0.514 C 
ATOM      3  N   UNL     1      48.294  15.180  18.811  0.00  0.00    -0.731 N 
ATOM      4  H   UNL     1      48.887  14.975  18.071  0.00  0.00    +0.406 HD
ATOM     30  O   UNL     1      47.362  14.530  20.716  0.00  0.00    -0.537 OA
ENDBRANCH   5   3
BRANCH  10  11
ATOM     11  O   UNL     1      43.267  19.677  21.313  0.00  0.00    -0.302 OA
ATOM     12  C   UNL     1      42.342  18.590  21.240  0.00  0.00    +0.245 C 
ENDBRANCH  10  11
BRANCH  13  14
ATOM     14  O   UNL     1      45.523  20.698  22.505  0.00  0.00    -0.312 OA
ATOM     15  C   UNL     1      45.342  22.112  22.409  0.00  0.00    +0.221 C 
ENDBRANCH  13  14
BRANCH  16  17
ATOM     17  O   UNL     1      47.986  20.318  21.330  0.00  0.00    -0.320 OA
ATOM     18  C   UNL     1      48.547  19.565  22.408  0.00  0.00    +0.234 C 
ENDBRANCH  16  17
BRANCH  23  24
ATOM     24  O   UNL     1      52.317  19.647  17.155  0.00  0.00    -0.283 OA
ATOM     25  C   UNL     1      52.301  20.737  16.231  0.00  0.00    +0.253 C 
ENDBRANCH  23  24
TORSDOF 5
ENDMDL
MODEL 6
REMARK VINA RESULT:      -4.8      3.476      6.696
REMARK  Name = ZINC00607790
REMARK  10 active torsions:
REMARK  status: ('A' for Active; 'I' for Inactive)
REMARK    1  A    between atoms: C1_1  and  C2_2
REMARK    2  A    between atoms: N1_4  and  C3_5
REMARK    3  A    between atoms: C8_11  and  O6_29
REMARK    4  A    between atoms: C9_12  and  O5_27
REMARK    5  A    between atoms: C10_13  and  O4_25
REMARK    6  A    between atoms: C16_20  and  O3_23
REMARK    7  A    between atoms: O3_23  and  C19_24
REMARK    8  A    between atoms: O4_25  and  C20_26
REMARK    9  A    between atoms: O5_27  and  C21_28
REMARK   10  A    between atoms: O6_29  and  C22_30
REMARK                            x       y       z     vdW  Elec       q    Type
REMARK                         _______ _______ _______ _____ _____    ______ ____
ROOT
ATOM      5  C   UNL     1      46.312  15.552  19.591  0.00  0.00    +0.277 C 
ATOM      6  C   UNL     1      45.523  16.787  19.205  0.00  0.00    +0.051 C 
ATOM      7  C   UNL     1      46.192  17.527  18.050  0.00  0.00    +0.095 C 
ATOM      8  C   UNL     1      47.677  17.612  18.293  0.00  0.00    -0.023 A 
ATOM      9  C   UNL     1      48.244  18.796  18.717  0.00  0.00    -0.054 A 
ATOM     10  C   UNL     1      49.614  18.875  18.930  0.00  0.00    +0.131 A 
ATOM     13  C   UNL     1      50.423  17.763  18.717  0.00  0.00    +0.047 A 
ATOM     16  C   UNL     1      49.858  16.567  18.295  0.00  0.00    +0.138 A 
ATOM     19  C   UNL     1      48.478  16.494  18.087  0.00  0.00    -0.101 A 
ATOM     20  C   UNL     1      47.862  15.202  17.659  0.00  0.00    -0.058 A 
ATOM     21  C   UNL     1      48.451  14.559  16.601  0.00  0.00    +0.112 A 
ATOM     22  C   UNL     1      48.147  13.427  15.937  0.00  0.00    -0.056 A 
ATOM     23  C   UNL     1      47.099  12.581  16.129  0.00  0.00    +0.104 A 
ATOM     26  C   UNL     1      46.109  12.729  17.093  0.00  0.00    +0.392 A 
ATOM     27  O   UNL     1      45.206  11.904  17.060  0.00  0.00    -0.489 OA
ATOM     28  C   UNL     1      46.010  13.677  18.072  0.00  0.00    -0.078 A 
ATOM     29  C   UNL     1      46.747  14.760  18.374  0.00  0.00    +0.026 A 
ENDROOT
BRANCH   5   3
ATOM      1  C   UNL     1      45.086  13.388  22.502  0.00  0.00    +0.100 C 
ATOM      2  C   UNL     1      45.946  14.265  21.628  0.00  0.00    +0.514 C 
ATOM      3  N   UNL     1      45.477  14.699  20.441  0.00  0.00    -0.731 N 
ATOM      4  H   UNL     1      44.587  14.447  20.149  0.00  0.00    +0.406 HD
ATOM     30  O   UNL     1      47.059  14.580  21.992  0.00  0.00    -0.537 OA
ENDBRANCH   5   3
BRANCH  10  11
ATOM     11  O   UNL     1      50.168  20.043  19.347  0.00  0.00    -0.302 OA
ATOM     12  C   UNL     1      50.278  21.091  18.381  0.00  0.00    +0.245 C 
ENDBRANCH  10  11
BRANCH  13  14
ATOM     14  O   UNL     1      51.766  17.849  18.922  0.00  0.00    -0.312 OA
ATOM     15  C   UNL     1      52.222  17.771  20.274  0.00  0.00    +0.221 C 
ENDBRANCH  13  14
BRANCH  16  17
ATOM     17  O   UNL     1      50.642  15.477  18.083  0.00  0.00    -0.320 OA
ATOM     18  C   UNL     1      50.894  14.630  19.207  0.00  0.00    +0.234 C 
ENDBRANCH  16  17
BRANCH  23  24
ATOM     24  O   UNL     1      47.015  11.501  15.313  0.00  0.00    -0.283 OA
ATOM     25  C   UNL     1      48.137  10.617  15.289  0.00  0.00    +0.253 C 
ENDBRANCH  23  24
TORSDOF 5
ENDMDL
MODEL 7
REMARK VINA RESULT:      -4.8      2.143      5.057
REMARK  Name = ZINC00607790
REMARK  10 active torsions:
REMARK  status: ('A' for Active; 'I' for Inactive)
REMARK    1  A    between atoms: C1_1  and  C2_2
REMARK    2  A    between atoms: N1_4  and  C3_5
REMARK    3  A    between atoms: C8_11  and  O6_29
REMARK    4  A    between atoms: C9_12  and  O5_27
REMARK    5  A    between atoms: C10_13  and  O4_25
REMARK    6  A    between atoms: C16_20  and  O3_23
REMARK    7  A    between atoms: O3_23  and  C19_24
REMARK    8  A    between atoms: O4_25  and  C20_26
REMARK    9  A    between atoms: O5_27  and  C21_28
REMARK   10  A    between atoms: O6_29  and  C22_30
REMARK                            x       y       z     vdW  Elec       q    Type
REMARK                         _______ _______ _______ _____ _____    ______ ____
ROOT
ATOM      5  C   UNL     1      49.138  20.038  19.432  0.00  0.00    +0.277 C 
ATOM      6  C   UNL     1      49.596  20.379  20.835  0.00  0.00    +0.051 C 
ATOM      7  C   UNL     1      48.417  20.425  21.803  0.00  0.00    +0.095 C 
ATOM      8  C   UNL     1      47.270  21.169  21.170  0.00  0.00    -0.023 A 
ATOM      9  C   UNL     1      46.985  22.463  21.555  0.00  0.00    -0.054 A 
ATOM     10  C   UNL     1      45.921  23.143  20.978  0.00  0.00    +0.131 A 
ATOM     13  C   UNL     1      45.134  22.525  20.012  0.00  0.00    +0.047 A 
ATOM     16  C   UNL     1      45.417  21.224  19.617  0.00  0.00    +0.138 A 
ATOM     19  C   UNL     1      46.493  20.548  20.198  0.00  0.00    -0.101 A 
ATOM     20  C   UNL     1      46.819  19.158  19.757  0.00  0.00    -0.058 A 
ATOM     21  C   UNL     1      45.778  18.267  19.709  0.00  0.00    +0.112 A 
ATOM     22  C   UNL     1      45.711  16.956  19.407  0.00  0.00    -0.056 A 
ATOM     23  C   UNL     1      46.721  16.105  19.075  0.00  0.00    +0.104 A 
ATOM     26  C   UNL     1      48.064  16.448  18.975  0.00  0.00    +0.392 A 
ATOM     27  O   UNL     1      48.832  15.525  18.739  0.00  0.00    -0.489 OA
ATOM     28  C   UNL     1      48.640  17.680  19.107  0.00  0.00    -0.078 A 
ATOM     29  C   UNL     1      48.148  18.889  19.429  0.00  0.00    +0.026 A 
ENDROOT
BRANCH   5   3
ATOM      1  C   UNL     1      52.065  20.182  16.970  0.00  0.00    +0.100 C 
ATOM      2  C   UNL     1      50.866  20.566  17.798  0.00  0.00    +0.514 C 
ATOM      3  N   UNL     1      50.303  19.665  18.626  0.00  0.00    -0.731 N 
ATOM      4  H   UNL     1      50.671  18.769  18.691  0.00  0.00    +0.406 HD
ATOM     30  O   UNL     1      50.407  21.686  17.718  0.00  0.00    -0.537 OA
ENDBRANCH   5   3
BRANCH  10  11
ATOM     11  O   UNL     1      45.645  24.417  21.360  0.00  0.00    -0.302 OA
ATOM     12  C   UNL     1      46.733  25.345  21.356  0.00  0.00    +0.245 C 
ENDBRANCH  10  11
BRANCH  13  14
ATOM     14  O   UNL     1      44.088  23.194  19.455  0.00  0.00    -0.312 OA
ATOM     15  C   UNL     1      44.404  24.300  18.606  0.00  0.00    +0.221 C 
ENDBRANCH  13  14
BRANCH  16  17
ATOM     17  O   UNL     1      44.651  20.612  18.674  0.00  0.00    -0.320 OA
ATOM     18  C   UNL     1      43.295  20.327  19.025  0.00  0.00    +0.234 C 
ENDBRANCH  16  17
BRANCH  23  24
ATOM     24  O   UNL     1      46.387  14.816  18.820  0.00  0.00    -0.283 OA
ATOM     25  C   UNL     1      45.352  14.243  19.620  0.00  0.00    +0.253 C 
ENDBRANCH  23  24
TORSDOF 5
ENDMDL
MODEL 8
REMARK VINA RESULT:      -4.7      2.867      7.076
REMARK  Name = ZINC00607790
REMARK  10 active torsions:
REMARK  status: ('A' for Active; 'I' for Inactive)
REMARK    1  A    between atoms: C1_1  and  C2_2
REMARK    2  A    between atoms: N1_4  and  C3_5
REMARK    3  A    between atoms: C8_11  and  O6_29
REMARK    4  A    between atoms: C9_12  and  O5_27
REMARK    5  A    between atoms: C10_13  and  O4_25
REMARK    6  A    between atoms: C16_20  and  O3_23
REMARK    7  A    between atoms: O3_23  and  C19_24
REMARK    8  A    between atoms: O4_25  and  C20_26
REMARK    9  A    between atoms: O5_27  and  C21_28
REMARK   10  A    between atoms: O6_29  and  C22_30
REMARK                            x       y       z     vdW  Elec       q    Type
REMARK                         _______ _______ _______ _____ _____    ______ ____
ROOT
ATOM      5  C   UNL     1      49.921  19.133  19.240  0.00  0.00    +0.277 C 
ATOM      6  C   UNL     1      50.762  19.419  18.013  0.00  0.00    +0.051 C 
ATOM      7  C   UNL     1      50.269  18.617  16.811  0.00  0.00    +0.095 C 
ATOM      8  C   UNL     1      49.983  17.198  17.229  0.00  0.00    -0.023 A 
ATOM      9  C   UNL     1      50.864  16.188  16.904  0.00  0.00    -0.054 A 
ATOM     10  C   UNL     1      50.593  14.879  17.282  0.00  0.00    +0.131 A 
ATOM     13  C   UNL     1      49.432  14.579  17.988  0.00  0.00    +0.047 A 
ATOM     16  C   UNL     1      48.543  15.591  18.322  0.00  0.00    +0.138 A 
ATOM     19  C   UNL     1      48.825  16.907  17.943  0.00  0.00    -0.101 A 
ATOM     20  C   UNL     1      47.886  18.004  18.323  0.00  0.00    -0.058 A 
ATOM     21  C   UNL     1      46.557  17.797  18.056  0.00  0.00    +0.112 A 
ATOM     22  C   UNL     1      45.463  18.566  18.220  0.00  0.00    -0.056 A 
ATOM     23  C   UNL     1      45.378  19.838  18.696  0.00  0.00    +0.104 A 
ATOM     26  C   UNL     1      46.449  20.611  19.128  0.00  0.00    +0.392 A 
ATOM     27  O   UNL     1      46.181  21.761  19.450  0.00  0.00    -0.489 OA
ATOM     28  C   UNL     1      47.764  20.257  19.238  0.00  0.00    -0.078 A 
ATOM     29  C   UNL     1      48.439  19.139  18.919  0.00  0.00    +0.026 A 
ENDROOT
BRANCH   5   3
ATOM      1  C   UNL     1      51.273  20.926  22.341  0.00  0.00    +0.100 C 
ATOM      2  C   UNL     1      50.993  19.873  21.300  0.00  0.00    +0.514 C 
ATOM      3  N   UNL     1      50.192  20.156  20.253  0.00  0.00    -0.731 N 
ATOM      4  H   UNL     1      49.796  21.038  20.170  0.00  0.00    +0.406 HD
ATOM     30  O   UNL     1      51.488  18.771  21.403  0.00  0.00    -0.537 OA
ENDBRANCH   5   3
BRANCH  10  11
ATOM     11  O   UNL     1      51.464  13.888  16.960  0.00  0.00    -0.302 OA
ATOM     12  C   UNL     1      51.464  13.440  15.602  0.00  0.00    +0.245 C 
ENDBRANCH  10  11
BRANCH  13  14
ATOM     14  O   UNL     1      49.169  13.293  18.349  0.00  0.00    -0.312 OA
ATOM     15  C   UNL     1      48.337  12.531  17.472  0.00  0.00    +0.221 C 
ENDBRANCH  13  14
BRANCH  16  17
ATOM     17  O   UNL     1      47.406  15.305  19.010  0.00  0.00    -0.320 OA
ATOM     18  C   UNL     1      47.526  15.152  20.426  0.00  0.00    +0.234 C 
ENDBRANCH  16  17
BRANCH  23  24
ATOM     24  O   UNL     1      44.144  20.397  18.756  0.00  0.00    -0.283 OA
ATOM     25  C   UNL     1      43.160  19.715  19.535  0.00  0.00    +0.253 C 
ENDBRANCH  23  24
TORSDOF 5
ENDMDL
MODEL 9
REMARK VINA RESULT:      -4.7      2.776      7.293
REMARK  Name = ZINC00607790
REMARK  10 active torsions:
REMARK  status: ('A' for Active; 'I' for Inactive)
REMARK    1  A    between atoms: C1_1  and  C2_2
REMARK    2  A    between atoms: N1_4  and  C3_5
REMARK    3  A    between atoms: C8_11  and  O6_29
REMARK    4  A    between atoms: C9_12  and  O5_27
REMARK    5  A    between atoms: C10_13  and  O4_25
REMARK    6  A    between atoms: C16_20  and  O3_23
REMARK    7  A    between atoms: O3_23  and  C19_24
REMARK    8  A    between atoms: O4_25  and  C20_26
REMARK    9  A    between atoms: O5_27  and  C21_28
REMARK   10  A    between atoms: O6_29  and  C22_30
REMARK                            x       y       z     vdW  Elec       q    Type
REMARK                         _______ _______ _______ _____ _____    ______ ____
ROOT
ATOM      5  C   UNL     1      47.688  17.875  18.387  0.00  0.00    +0.277 C 
ATOM      6  C   UNL     1      47.520  17.402  16.957  0.00  0.00    +0.051 C 
ATOM      7  C   UNL     1      46.589  16.195  16.884  0.00  0.00    +0.095 C 
ATOM      8  C   UNL     1      46.936  15.218  17.978  0.00  0.00    -0.023 A 
ATOM      9  C   UNL     1      47.631  14.064  17.683  0.00  0.00    -0.054 A 
ATOM     10  C   UNL     1      47.941  13.161  18.692  0.00  0.00    +0.131 A 
ATOM     13  C   UNL     1      47.551  13.412  20.003  0.00  0.00    +0.047 A 
ATOM     16  C   UNL     1      46.854  14.573  20.308  0.00  0.00    +0.138 A 
ATOM     19  C   UNL     1      46.551  15.480  19.289  0.00  0.00    -0.101 A 
ATOM     20  C   UNL     1      45.825  16.745  19.616  0.00  0.00    -0.058 A 
ATOM     21  C   UNL     1      44.695  16.626  20.382  0.00  0.00    +0.112 A 
ATOM     22  C   UNL     1      43.792  17.523  20.822  0.00  0.00    -0.056 A 
ATOM     23  C   UNL     1      43.738  18.863  20.589  0.00  0.00    +0.104 A 
ATOM     26  C   UNL     1      44.648  19.587  19.828  0.00  0.00    +0.392 A 
ATOM     27  O   UNL     1      44.388  20.772  19.672  0.00  0.00    -0.489 OA
ATOM     28  C   UNL     1      45.796  19.148  19.230  0.00  0.00    -0.078 A 
ATOM     29  C   UNL     1      46.362  17.934  19.118  0.00  0.00    +0.026 A 
ENDROOT
BRANCH   5   3
ATOM      1  C   UNL     1      50.187  20.752  18.749  0.00  0.00    +0.100 C 
ATOM      2  C   UNL     1      49.571  19.377  18.758  0.00  0.00    +0.514 C 
ATOM      3  N   UNL     1      48.288  19.212  18.380  0.00  0.00    -0.731 N 
ATOM      4  H   UNL     1      47.761  19.978  18.101  0.00  0.00    +0.406 HD
ATOM     30  O   UNL     1      50.229  18.419  19.105  0.00  0.00    -0.537 OA
ENDBRANCH   5   3
BRANCH  10  11
ATOM     11  O   UNL     1      48.626  12.025  18.396  0.00  0.00    -0.302 OA
ATOM     12  C   UNL     1      47.884  10.954  17.807  0.00  0.00    +0.245 C 
ENDBRANCH  10  11
BRANCH  13  14
ATOM     14  O   UNL     1      47.851  12.519  20.986  0.00  0.00    -0.312 OA
ATOM     15  C   UNL     1      49.177  12.563  21.518  0.00  0.00    +0.221 C 
ENDBRANCH  13  14
BRANCH  16  17
ATOM     17  O   UNL     1      46.468  14.825  21.587  0.00  0.00    -0.320 OA
ATOM     18  C   UNL     1      47.400  15.518  22.421  0.00  0.00    +0.234 C 
ENDBRANCH  16  17
BRANCH  23  24
ATOM     24  O   UNL     1      42.711  19.550  21.148  0.00  0.00    -0.283 OA
ATOM     25  C   UNL     1      41.438  18.901  21.180  0.00  0.00    +0.253 C 
ENDBRANCH  23  24
TORSDOF 5
ENDMDL
