MODEL 1
REMARK VINA RESULT:      -6.0      0.000      0.000
REMARK  Name = ZINC95485995
REMARK  13 active torsions:
REMARK  status: ('A' for Active; 'I' for Inactive)
REMARK    1  A    between atoms: C1_1  and  C2_2
REMARK    2  A    between atoms: C6_8  and  C27_35
REMARK    3  A    between atoms: C6_8  and  C28_36
REMARK    4  A    between atoms: C7_9  and  C25_32
REMARK    5  A    between atoms: C8_11  and  C21_28
REMARK    6  A    between atoms: C8_11  and  C22_29
REMARK    7  A    between atoms: C9_12  and  O1_17
REMARK    8  A    between atoms: O1_17  and  C12_18
REMARK    9  A    between atoms: C12_18  and  C13_20
REMARK   10  A    between atoms: C14_21  and  C15_22
REMARK   11  A    between atoms: C22_29  and  C23_30
REMARK   12  A    between atoms: C22_29  and  C24_31
REMARK   13  A    between atoms: C25_32  and  C26_34
REMARK                            x       y       z     vdW  Elec       q    Type
REMARK                         _______ _______ _______ _____ _____    ______ ____
ROOT
ATOM      1  C   UNL     1      52.262  19.947  21.821  0.00  0.00    +0.017 C 
ATOM      2  C   UNL     1      50.834  19.983  22.367  0.00  0.00    -0.026 C 
ATOM      3  C   UNL     1      50.018  21.095  21.673  0.00  0.00    +0.015 C 
ATOM      4  C   UNL     1      48.544  20.644  21.880  0.00  0.00    +0.000 C 
ATOM      5  C   UNL     1      47.700  21.301  20.851  0.00  0.00    +0.034 C 
ATOM      6  C   UNL     1      46.230  21.027  20.787  0.00  0.00    -0.033 C 
ATOM      7  C   UNL     1      45.611  22.165  19.930  0.00  0.00    +0.016 C 
ATOM      8  C   UNL     1      45.618  21.178  22.187  0.00  0.00    +0.021 C 
ATOM      9  C   UNL     1      45.809  19.749  20.156  0.00  0.00    -0.004 C 
ATOM     13  C   UNL     1      46.423  18.462  20.639  0.00  0.00    -0.029 C 
ATOM     17  C   UNL     1      45.770  18.012  21.947  0.00  0.00    +0.047 C 
ATOM     18  C   UNL     1      47.900  18.397  20.766  0.00  0.00    +0.214 C 
ATOM     30  C   UNL     1      48.588  19.135  21.869  0.00  0.00    -0.028 C 
ATOM     31  C   UNL     1      50.065  18.694  21.989  0.00  0.00    +0.017 C 
ENDROOT
BRANCH   9  10
ATOM     10  C   UNL     1      44.300  19.631  20.267  0.00  0.00    +0.356 C 
ATOM     11  C   UNL     1      43.433  19.901  19.065  0.00  0.00    +0.056 C 
ATOM     12  O   UNL     1      43.795  19.319  21.318  0.00  0.00    -0.443 OA
ENDBRANCH   9  10
BRANCH  13  14
ATOM     14  C   UNL     1      46.042  17.384  19.592  0.00  0.00    -0.029 C 
ATOM     15  C   UNL     1      45.536  18.066  18.320  0.00  0.00    +0.021 C 
ATOM     16  C   UNL     1      44.942  16.486  20.163  0.00  0.00    +0.022 C 
ENDBRANCH  13  14
BRANCH  18  19
ATOM     19  O   UNL     1      48.477  18.805  19.523  0.00  0.00    -0.336 OA
BRANCH  19  20
ATOM     20  C   UNL     1      49.134  17.863  18.814  0.00  0.00    +0.488 C 
ATOM     29  O   UNL     1      48.670  17.461  17.764  0.00  0.00    -0.486 OA
BRANCH  20  21
ATOM     21  C   UNL     1      50.402  17.327  19.307  0.00  0.00    -0.055 C 
ATOM     22  C   UNL     1      51.566  17.750  18.773  0.00  0.00    +0.139 C 
BRANCH  22  23
ATOM     23  C   UNL     1      51.583  18.910  17.867  0.00  0.00    -0.084 A 
ATOM     24  C   UNL     1      51.839  18.733  16.503  0.00  0.00    +0.067 A 
ATOM     25  C   UNL     1      51.852  19.825  15.661  0.00  0.00    -0.010 A 
ATOM     26  C   UNL     1      51.614  21.093  16.163  0.00  0.00    +0.016 A 
ATOM     27  C   UNL     1      51.360  21.276  17.511  0.00  0.00    -0.010 A 
ATOM     28  C   UNL     1      51.337  20.193  18.365  0.00  0.00    +0.027 A 
ENDBRANCH  22  23
ENDBRANCH  20  21
ENDBRANCH  19  20
ENDBRANCH  18  19
TORSDOF 6
ENDMDL
MODEL 2
REMARK VINA RESULT:      -6.0      2.016      4.699
REMARK  Name = ZINC95485995
REMARK  13 active torsions:
REMARK  status: ('A' for Active; 'I' for Inactive)
REMARK    1  A    between atoms: C1_1  and  C2_2
REMARK    2  A    between atoms: C6_8  and  C27_35
REMARK    3  A    between atoms: C6_8  and  C28_36
REMARK    4  A    between atoms: C7_9  and  C25_32
REMARK    5  A    between atoms: C8_11  and  C21_28
REMARK    6  A    between atoms: C8_11  and  C22_29
REMARK    7  A    between atoms: C9_12  and  O1_17
REMARK    8  A    between atoms: O1_17  and  C12_18
REMARK    9  A    between atoms: C12_18  and  C13_20
REMARK   10  A    between atoms: C14_21  and  C15_22
REMARK   11  A    between atoms: C22_29  and  C23_30
REMARK   12  A    between atoms: C22_29  and  C24_31
REMARK   13  A    between atoms: C25_32  and  C26_34
REMARK                            x       y       z     vdW  Elec       q    Type
REMARK                         _______ _______ _______ _____ _____    ______ ____
ROOT
ATOM      1  C   UNL     1      45.082  21.703  19.131  0.00  0.00    +0.017 C 
ATOM      2  C   UNL     1      44.940  20.251  19.588  0.00  0.00    -0.026 C 
ATOM      3  C   UNL     1      45.057  19.291  18.385  0.00  0.00    +0.015 C 
ATOM      4  C   UNL     1      45.468  17.941  19.039  0.00  0.00    +0.000 C 
ATOM      5  C   UNL     1      46.112  17.093  18.005  0.00  0.00    +0.034 C 
ATOM      6  C   UNL     1      46.641  15.737  18.358  0.00  0.00    -0.033 C 
ATOM      7  C   UNL     1      46.831  14.980  17.015  0.00  0.00    +0.016 C 
ATOM      8  C   UNL     1      45.570  14.954  19.131  0.00  0.00    +0.021 C 
ATOM      9  C   UNL     1      47.950  15.685  19.059  0.00  0.00    -0.004 C 
ATOM     13  C   UNL     1      48.144  16.512  20.302  0.00  0.00    -0.029 C 
ATOM     17  C   UNL     1      47.491  15.833  21.508  0.00  0.00    +0.047 C 
ATOM     18  C   UNL     1      47.752  17.943  20.257  0.00  0.00    +0.214 C 
ATOM     30  C   UNL     1      46.306  18.321  20.235  0.00  0.00    -0.028 C 
ATOM     31  C   UNL     1      46.129  19.835  20.487  0.00  0.00    +0.017 C 
ENDROOT
BRANCH   9  10
ATOM     10  C   UNL     1      48.260  14.238  19.394  0.00  0.00    +0.356 C 
ATOM     11  C   UNL     1      49.282  13.480  18.586  0.00  0.00    +0.056 C 
ATOM     12  O   UNL     1      47.690  13.694  20.308  0.00  0.00    -0.443 OA
ENDBRANCH   9  10
BRANCH  13  14
ATOM     14  C   UNL     1      49.666  16.501  20.594  0.00  0.00    -0.029 C 
ATOM     15  C   UNL     1      50.426  16.116  19.323  0.00  0.00    +0.021 C 
ATOM     16  C   UNL     1      49.967  15.482  21.696  0.00  0.00    +0.022 C 
ENDBRANCH  13  14
BRANCH  18  19
ATOM     19  O   UNL     1      48.394  18.550  19.133  0.00  0.00    -0.336 OA
BRANCH  19  20
ATOM     20  C   UNL     1      48.925  19.776  19.319  0.00  0.00    +0.488 C 
ATOM     29  O   UNL     1      48.430  20.743  18.771  0.00  0.00    -0.486 OA
BRANCH  20  21
ATOM     21  C   UNL     1      50.097  19.943  20.179  0.00  0.00    -0.055 C 
ATOM     22  C   UNL     1      51.335  19.905  19.647  0.00  0.00    +0.139 C 
BRANCH  22  23
ATOM     23  C   UNL     1      51.510  19.930  18.185  0.00  0.00    -0.084 A 
ATOM     24  C   UNL     1      51.677  18.736  17.476  0.00  0.00    +0.067 A 
ATOM     25  C   UNL     1      51.839  18.769  16.107  0.00  0.00    -0.010 A 
ATOM     26  C   UNL     1      51.838  19.979  15.436  0.00  0.00    +0.016 A 
ATOM     27  C   UNL     1      51.674  21.165  16.130  0.00  0.00    -0.010 A 
ATOM     28  C   UNL     1      51.504  21.149  17.499  0.00  0.00    +0.027 A 
ENDBRANCH  22  23
ENDBRANCH  20  21
ENDBRANCH  19  20
ENDBRANCH  18  19
TORSDOF 6
ENDMDL
MODEL 3
REMARK VINA RESULT:      -6.0      1.883      6.101
REMARK  Name = ZINC95485995
REMARK  13 active torsions:
REMARK  status: ('A' for Active; 'I' for Inactive)
REMARK    1  A    between atoms: C1_1  and  C2_2
REMARK    2  A    between atoms: C6_8  and  C27_35
REMARK    3  A    between atoms: C6_8  and  C28_36
REMARK    4  A    between atoms: C7_9  and  C25_32
REMARK    5  A    between atoms: C8_11  and  C21_28
REMARK    6  A    between atoms: C8_11  and  C22_29
REMARK    7  A    between atoms: C9_12  and  O1_17
REMARK    8  A    between atoms: O1_17  and  C12_18
REMARK    9  A    between atoms: C12_18  and  C13_20
REMARK   10  A    between atoms: C14_21  and  C15_22
REMARK   11  A    between atoms: C22_29  and  C23_30
REMARK   12  A    between atoms: C22_29  and  C24_31
REMARK   13  A    between atoms: C25_32  and  C26_34
REMARK                            x       y       z     vdW  Elec       q    Type
REMARK                         _______ _______ _______ _____ _____    ______ ____
ROOT
ATOM      1  C   UNL     1      44.207  21.602  20.094  0.00  0.00    +0.017 C 
ATOM      2  C   UNL     1      45.707  21.783  19.857  0.00  0.00    -0.026 C 
ATOM      3  C   UNL     1      46.508  21.346  21.102  0.00  0.00    +0.015 C 
ATOM      4  C   UNL     1      47.923  21.040  20.532  0.00  0.00    +0.000 C 
ATOM      5  C   UNL     1      48.626  20.135  21.474  0.00  0.00    +0.034 C 
ATOM      6  C   UNL     1      50.007  19.645  21.167  0.00  0.00    -0.033 C 
ATOM      7  C   UNL     1      50.589  19.112  22.505  0.00  0.00    +0.016 C 
ATOM      8  C   UNL     1      50.896  20.831  20.768  0.00  0.00    +0.021 C 
ATOM      9  C   UNL     1      50.127  18.535  20.186  0.00  0.00    -0.004 C 
ATOM     13  C   UNL     1      49.458  18.675  18.843  0.00  0.00    -0.029 C 
ATOM     17  C   UNL     1      50.291  19.562  17.916  0.00  0.00    +0.047 C 
ATOM     18  C   UNL     1      48.039  19.108  18.813  0.00  0.00    +0.214 C 
ATOM     30  C   UNL     1      47.682  20.523  19.134  0.00  0.00    -0.028 C 
ATOM     31  C   UNL     1      46.214  20.821  18.755  0.00  0.00    +0.017 C 
ENDROOT
BRANCH   9  10
ATOM     10  C   UNL     1      51.599  18.249  19.958  0.00  0.00    +0.356 C 
ATOM     11  C   UNL     1      52.206  16.969  20.472  0.00  0.00    +0.056 C 
ATOM     12  O   UNL     1      52.285  19.046  19.365  0.00  0.00    -0.443 OA
ENDBRANCH   9  10
BRANCH  13  14
ATOM     14  C   UNL     1      49.483  17.264  18.201  0.00  0.00    -0.029 C 
ATOM     15  C   UNL     1      48.689  17.286  16.893  0.00  0.00    +0.021 C 
ATOM     16  C   UNL     1      48.853  16.255  19.163  0.00  0.00    +0.022 C 
ENDBRANCH  13  14
BRANCH  18  19
ATOM     19  O   UNL     1      47.287  18.248  19.672  0.00  0.00    -0.336 OA
BRANCH  19  20
ATOM     20  C   UNL     1      46.032  17.938  19.285  0.00  0.00    +0.488 C 
ATOM     29  O   UNL     1      45.815  17.612  18.133  0.00  0.00    -0.486 OA
BRANCH  20  21
ATOM     21  C   UNL     1      44.934  17.992  20.249  0.00  0.00    -0.055 C 
ATOM     22  C   UNL     1      44.581  16.886  20.934  0.00  0.00    +0.139 C 
BRANCH  22  23
ATOM     23  C   UNL     1      45.439  15.690  20.892  0.00  0.00    -0.084 A 
ATOM     24  C   UNL     1      45.274  14.741  19.877  0.00  0.00    +0.067 A 
ATOM     25  C   UNL     1      46.081  13.624  19.845  0.00  0.00    -0.010 A 
ATOM     26  C   UNL     1      47.052  13.440  20.814  0.00  0.00    +0.016 A 
ATOM     27  C   UNL     1      47.222  14.374  21.821  0.00  0.00    -0.010 A 
ATOM     28  C   UNL     1      46.426  15.499  21.864  0.00  0.00    +0.027 A 
ENDBRANCH  22  23
ENDBRANCH  20  21
ENDBRANCH  19  20
ENDBRANCH  18  19
TORSDOF 6
ENDMDL
MODEL 4
REMARK VINA RESULT:      -5.8      1.950      4.425
REMARK  Name = ZINC95485995
REMARK  13 active torsions:
REMARK  status: ('A' for Active; 'I' for Inactive)
REMARK    1  A    between atoms: C1_1  and  C2_2
REMARK    2  A    between atoms: C6_8  and  C27_35
REMARK    3  A    between atoms: C6_8  and  C28_36
REMARK    4  A    between atoms: C7_9  and  C25_32
REMARK    5  A    between atoms: C8_11  and  C21_28
REMARK    6  A    between atoms: C8_11  and  C22_29
REMARK    7  A    between atoms: C9_12  and  O1_17
REMARK    8  A    between atoms: O1_17  and  C12_18
REMARK    9  A    between atoms: C12_18  and  C13_20
REMARK   10  A    between atoms: C14_21  and  C15_22
REMARK   11  A    between atoms: C22_29  and  C23_30
REMARK   12  A    between atoms: C22_29  and  C24_31
REMARK   13  A    between atoms: C25_32  and  C26_34
REMARK                            x       y       z     vdW  Elec       q    Type
REMARK                         _______ _______ _______ _____ _____    ______ ____
ROOT
ATOM      1  C   UNL     1      47.896  13.318  16.397  0.00  0.00    +0.017 C 
ATOM      2  C   UNL     1      46.756  14.096  17.056  0.00  0.00    -0.026 C 
ATOM      3  C   UNL     1      46.941  14.132  18.588  0.00  0.00    +0.015 C 
ATOM      4  C   UNL     1      46.107  15.370  19.024  0.00  0.00    +0.000 C 
ATOM      5  C   UNL     1      46.600  15.830  20.346  0.00  0.00    +0.034 C 
ATOM      6  C   UNL     1      45.998  17.033  21.004  0.00  0.00    -0.033 C 
ATOM      7  C   UNL     1      46.417  16.968  22.498  0.00  0.00    +0.016 C 
ATOM      8  C   UNL     1      44.468  16.911  20.993  0.00  0.00    +0.021 C 
ATOM      9  C   UNL     1      46.431  18.363  20.503  0.00  0.00    -0.004 C 
ATOM     13  C   UNL     1      46.350  18.647  19.026  0.00  0.00    -0.029 C 
ATOM     17  C   UNL     1      44.913  18.981  18.621  0.00  0.00    +0.047 C 
ATOM     18  C   UNL     1      46.916  17.644  18.090  0.00  0.00    +0.214 C 
ATOM     30  C   UNL     1      46.214  16.343  17.875  0.00  0.00    -0.028 C 
ATOM     31  C   UNL     1      46.805  15.592  16.660  0.00  0.00    +0.017 C 
ENDROOT
BRANCH   9  10
ATOM     10  C   UNL     1      45.649  19.434  21.239  0.00  0.00    +0.356 C 
ATOM     11  C   UNL     1      46.314  20.241  22.325  0.00  0.00    +0.056 C 
ATOM     12  O   UNL     1      44.494  19.640  20.956  0.00  0.00    -0.443 OA
ENDBRANCH   9  10
BRANCH  13  14
ATOM     14  C   UNL     1      47.160  19.948  18.792  0.00  0.00    -0.029 C 
ATOM     15  C   UNL     1      48.166  20.132  19.930  0.00  0.00    +0.021 C 
ATOM     16  C   UNL     1      46.206  21.143  18.756  0.00  0.00    +0.022 C 
ENDBRANCH  13  14
BRANCH  18  19
ATOM     19  O   UNL     1      48.263  17.370  18.485  0.00  0.00    -0.336 OA
BRANCH  19  20
ATOM     20  C   UNL     1      49.191  17.323  17.507  0.00  0.00    +0.488 C 
ATOM     29  O   UNL     1      49.049  17.994  16.502  0.00  0.00    -0.486 OA
BRANCH  20  21
ATOM     21  C   UNL     1      50.368  16.468  17.655  0.00  0.00    -0.055 C 
ATOM     22  C   UNL     1      51.581  17.018  17.862  0.00  0.00    +0.139 C 
BRANCH  22  23
ATOM     23  C   UNL     1      51.695  18.453  18.173  0.00  0.00    -0.084 A 
ATOM     24  C   UNL     1      51.656  18.889  19.502  0.00  0.00    +0.067 A 
ATOM     25  C   UNL     1      51.763  20.235  19.785  0.00  0.00    -0.010 A 
ATOM     26  C   UNL     1      51.908  21.151  18.758  0.00  0.00    +0.016 A 
ATOM     27  C   UNL     1      51.948  20.727  17.441  0.00  0.00    -0.010 A 
ATOM     28  C   UNL     1      51.847  19.384  17.142  0.00  0.00    +0.027 A 
ENDBRANCH  22  23
ENDBRANCH  20  21
ENDBRANCH  19  20
ENDBRANCH  18  19
TORSDOF 6
ENDMDL
MODEL 5
REMARK VINA RESULT:      -5.6      4.584      7.729
REMARK  Name = ZINC95485995
REMARK  13 active torsions:
REMARK  status: ('A' for Active; 'I' for Inactive)
REMARK    1  A    between atoms: C1_1  and  C2_2
REMARK    2  A    between atoms: C6_8  and  C27_35
REMARK    3  A    between atoms: C6_8  and  C28_36
REMARK    4  A    between atoms: C7_9  and  C25_32
REMARK    5  A    between atoms: C8_11  and  C21_28
REMARK    6  A    between atoms: C8_11  and  C22_29
REMARK    7  A    between atoms: C9_12  and  O1_17
REMARK    8  A    between atoms: O1_17  and  C12_18
REMARK    9  A    between atoms: C12_18  and  C13_20
REMARK   10  A    between atoms: C14_21  and  C15_22
REMARK   11  A    between atoms: C22_29  and  C23_30
REMARK   12  A    between atoms: C22_29  and  C24_31
REMARK   13  A    between atoms: C25_32  and  C26_34
REMARK                            x       y       z     vdW  Elec       q    Type
REMARK                         _______ _______ _______ _____ _____    ______ ____
ROOT
ATOM      1  C   UNL     1      45.335  14.608  20.538  0.00  0.00    +0.017 C 
ATOM      2  C   UNL     1      45.900  13.397  19.794  0.00  0.00    -0.026 C 
ATOM      3  C   UNL     1      45.711  13.563  18.271  0.00  0.00    +0.015 C 
ATOM      4  C   UNL     1      46.790  12.618  17.668  0.00  0.00    +0.000 C 
ATOM      5  C   UNL     1      47.078  13.056  16.280  0.00  0.00    +0.034 C 
ATOM      6  C   UNL     1      48.108  12.343  15.458  0.00  0.00    -0.033 C 
ATOM      7  C   UNL     1      47.847  12.751  13.982  0.00  0.00    +0.016 C 
ATOM      8  C   UNL     1      47.860  10.830  15.524  0.00  0.00    +0.021 C 
ATOM      9  C   UNL     1      49.532  12.664  15.737  0.00  0.00    -0.004 C 
ATOM     13  C   UNL     1      50.035  12.572  17.153  0.00  0.00    -0.029 C 
ATOM     17  C   UNL     1      50.305  11.116  17.536  0.00  0.00    +0.047 C 
ATOM     18  C   UNL     1      49.243  13.234  18.220  0.00  0.00    +0.214 C 
ATOM     30  C   UNL     1      47.936  12.651  18.650  0.00  0.00    -0.028 C 
ATOM     31  C   UNL     1      47.438  13.319  19.952  0.00  0.00    +0.017 C 
ENDROOT
BRANCH   9  10
ATOM     10  C   UNL     1      50.404  11.782  14.862  0.00  0.00    +0.356 C 
ATOM     11  C   UNL     1      51.226  12.395  13.757  0.00  0.00    +0.056 C 
ATOM     12  O   UNL     1      50.441  10.591  15.051  0.00  0.00    -0.443 OA
ENDBRANCH   9  10
BRANCH  13  14
ATOM     14  C   UNL     1      51.421  13.268  17.163  0.00  0.00    -0.029 C 
ATOM     15  C   UNL     1      51.944  13.341  18.599  0.00  0.00    +0.021 C 
ATOM     16  C   UNL     1      51.285  14.683  16.597  0.00  0.00    +0.022 C 
ENDBRANCH  13  14
BRANCH  18  19
ATOM     19  O   UNL     1      49.026  14.596  17.840  0.00  0.00    -0.336 OA
BRANCH  19  20
ATOM     20  C   UNL     1      48.974  15.508  18.832  0.00  0.00    +0.488 C 
ATOM     29  O   UNL     1      49.797  15.480  19.728  0.00  0.00    -0.486 OA
BRANCH  20  21
ATOM     21  C   UNL     1      47.929  16.531  18.831  0.00  0.00    -0.055 C 
ATOM     22  C   UNL     1      48.251  17.825  18.630  0.00  0.00    +0.139 C 
BRANCH  22  23
ATOM     23  C   UNL     1      49.607  18.185  18.181  0.00  0.00    -0.084 A 
ATOM     24  C   UNL     1      49.972  18.014  16.841  0.00  0.00    +0.067 A 
ATOM     25  C   UNL     1      51.243  18.353  16.429  0.00  0.00    -0.010 A 
ATOM     26  C   UNL     1      52.156  18.861  17.336  0.00  0.00    +0.016 A 
ATOM     27  C   UNL     1      51.802  19.033  18.663  0.00  0.00    -0.010 A 
ATOM     28  C   UNL     1      50.533  18.704  19.091  0.00  0.00    +0.027 A 
ENDBRANCH  22  23
ENDBRANCH  20  21
ENDBRANCH  19  20
ENDBRANCH  18  19
TORSDOF 6
ENDMDL
MODEL 6
REMARK VINA RESULT:      -5.6      1.918      6.426
REMARK  Name = ZINC95485995
REMARK  13 active torsions:
REMARK  status: ('A' for Active; 'I' for Inactive)
REMARK    1  A    between atoms: C1_1  and  C2_2
REMARK    2  A    between atoms: C6_8  and  C27_35
REMARK    3  A    between atoms: C6_8  and  C28_36
REMARK    4  A    between atoms: C7_9  and  C25_32
REMARK    5  A    between atoms: C8_11  and  C21_28
REMARK    6  A    between atoms: C8_11  and  C22_29
REMARK    7  A    between atoms: C9_12  and  O1_17
REMARK    8  A    between atoms: O1_17  and  C12_18
REMARK    9  A    between atoms: C12_18  and  C13_20
REMARK   10  A    between atoms: C14_21  and  C15_22
REMARK   11  A    between atoms: C22_29  and  C23_30
REMARK   12  A    between atoms: C22_29  and  C24_31
REMARK   13  A    between atoms: C25_32  and  C26_34
REMARK                            x       y       z     vdW  Elec       q    Type
REMARK                         _______ _______ _______ _____ _____    ______ ____
ROOT
ATOM      1  C   UNL     1      46.002  13.827  19.601  0.00  0.00    +0.017 C 
ATOM      2  C   UNL     1      47.482  14.188  19.468  0.00  0.00    -0.026 C 
ATOM      3  C   UNL     1      47.740  14.929  18.138  0.00  0.00    +0.015 C 
ATOM      4  C   UNL     1      49.063  15.702  18.406  0.00  0.00    +0.000 C 
ATOM      5  C   UNL     1      49.152  16.833  17.449  0.00  0.00    +0.034 C 
ATOM      6  C   UNL     1      50.315  17.775  17.494  0.00  0.00    -0.033 C 
ATOM      7  C   UNL     1      50.317  18.529  16.136  0.00  0.00    +0.016 C 
ATOM      8  C   UNL     1      51.623  16.974  17.530  0.00  0.00    +0.021 C 
ATOM      9  C   UNL     1      50.298  18.817  18.553  0.00  0.00    -0.004 C 
ATOM     13  C   UNL     1      50.083  18.398  19.983  0.00  0.00    -0.029 C 
ATOM     17  C   UNL     1      51.375  17.837  20.580  0.00  0.00    +0.047 C 
ATOM     18  C   UNL     1      48.953  17.484  20.281  0.00  0.00    +0.214 C 
ATOM     30  C   UNL     1      49.028  16.047  19.875  0.00  0.00    -0.028 C 
ATOM     31  C   UNL     1      47.896  15.228  20.536  0.00  0.00    +0.017 C 
ENDROOT
BRANCH   9  10
ATOM     10  C   UNL     1      51.592  19.605  18.474  0.00  0.00    +0.356 C 
ATOM     11  C   UNL     1      51.567  21.057  18.070  0.00  0.00    +0.056 C 
ATOM     12  O   UNL     1      52.642  19.070  18.737  0.00  0.00    -0.443 OA
ENDBRANCH   9  10
BRANCH  13  14
ATOM     14  C   UNL     1      49.792  19.700  20.774  0.00  0.00    -0.029 C 
ATOM     15  C   UNL     1      49.426  19.348  22.217  0.00  0.00    +0.021 C 
ATOM     16  C   UNL     1      48.626  20.444  20.119  0.00  0.00    +0.022 C 
ENDBRANCH  13  14
BRANCH  18  19
ATOM     19  O   UNL     1      47.760  18.047  19.728  0.00  0.00    -0.336 OA
BRANCH  19  20
ATOM     20  C   UNL     1      46.615  17.852  20.413  0.00  0.00    +0.488 C 
ATOM     29  O   UNL     1      46.599  17.989  21.622  0.00  0.00    -0.486 OA
BRANCH  20  21
ATOM     21  C   UNL     1      45.393  17.475  19.704  0.00  0.00    -0.055 C 
ATOM     22  C   UNL     1      44.426  18.391  19.492  0.00  0.00    +0.139 C 
BRANCH  22  23
ATOM     23  C   UNL     1      44.690  19.815  19.760  0.00  0.00    -0.084 A 
ATOM     24  C   UNL     1      44.410  20.357  21.019  0.00  0.00    +0.067 A 
ATOM     25  C   UNL     1      44.661  21.691  21.261  0.00  0.00    -0.010 A 
ATOM     26  C   UNL     1      45.186  22.493  20.263  0.00  0.00    +0.016 A 
ATOM     27  C   UNL     1      45.464  21.964  19.015  0.00  0.00    -0.010 A 
ATOM     28  C   UNL     1      45.225  20.630  18.758  0.00  0.00    +0.027 A 
ENDBRANCH  22  23
ENDBRANCH  20  21
ENDBRANCH  19  20
ENDBRANCH  18  19
TORSDOF 6
ENDMDL
MODEL 7
REMARK VINA RESULT:      -5.5      2.088      6.725
REMARK  Name = ZINC95485995
REMARK  13 active torsions:
REMARK  status: ('A' for Active; 'I' for Inactive)
REMARK    1  A    between atoms: C1_1  and  C2_2
REMARK    2  A    between atoms: C6_8  and  C27_35
REMARK    3  A    between atoms: C6_8  and  C28_36
REMARK    4  A    between atoms: C7_9  and  C25_32
REMARK    5  A    between atoms: C8_11  and  C21_28
REMARK    6  A    between atoms: C8_11  and  C22_29
REMARK    7  A    between atoms: C9_12  and  O1_17
REMARK    8  A    between atoms: O1_17  and  C12_18
REMARK    9  A    between atoms: C12_18  and  C13_20
REMARK   10  A    between atoms: C14_21  and  C15_22
REMARK   11  A    between atoms: C22_29  and  C23_30
REMARK   12  A    between atoms: C22_29  and  C24_31
REMARK   13  A    between atoms: C25_32  and  C26_34
REMARK                            x       y       z     vdW  Elec       q    Type
REMARK                         _______ _______ _______ _____ _____    ______ ____
ROOT
ATOM      1  C   UNL     1      46.669  13.544  17.274  0.00  0.00    +0.017 C 
ATOM      2  C   UNL     1      47.962  14.042  17.922  0.00  0.00    -0.026 C 
ATOM      3  C   UNL     1      48.842  14.769  16.883  0.00  0.00    +0.015 C 
ATOM      4  C   UNL     1      49.760  15.672  17.757  0.00  0.00    +0.000 C 
ATOM      5  C   UNL     1      50.272  16.780  16.914  0.00  0.00    +0.034 C 
ATOM      6  C   UNL     1      51.164  17.830  17.501  0.00  0.00    -0.033 C 
ATOM      7  C   UNL     1      51.844  18.545  16.301  0.00  0.00    +0.016 C 
ATOM      8  C   UNL     1      52.299  17.159  18.286  0.00  0.00    +0.021 C 
ATOM      9  C   UNL     1      50.512  18.893  18.309  0.00  0.00    -0.004 C 
ATOM     13  C   UNL     1      49.592  18.493  19.432  0.00  0.00    -0.029 C 
ATOM     17  C   UNL     1      50.398  18.074  20.664  0.00  0.00    +0.047 C 
ATOM     18  C   UNL     1      48.543  17.483  19.149  0.00  0.00    +0.214 C 
ATOM     30  C   UNL     1      48.920  16.050  18.952  0.00  0.00    -0.028 C 
ATOM     31  C   UNL     1      47.668  15.144  18.968  0.00  0.00    +0.017 C 
ENDROOT
BRANCH   9  10
ATOM     10  C   UNL     1      51.591  19.799  18.874  0.00  0.00    +0.356 C 
ATOM     11  C   UNL     1      51.838  21.152  18.256  0.00  0.00    +0.056 C 
ATOM     12  O   UNL     1      52.250  19.437  19.817  0.00  0.00    -0.443 OA
ENDBRANCH   9  10
BRANCH  13  14
ATOM     14  C   UNL     1      48.837  19.781  19.849  0.00  0.00    -0.029 C 
ATOM     15  C   UNL     1      48.978  20.834  18.748  0.00  0.00    +0.021 C 
ATOM     16  C   UNL     1      49.431  20.322  21.151  0.00  0.00    +0.022 C 
ENDBRANCH  13  14
BRANCH  18  19
ATOM     19  O   UNL     1      47.799  17.914  18.007  0.00  0.00    -0.336 OA
BRANCH  19  20
ATOM     20  C   UNL     1      46.454  17.903  18.112  0.00  0.00    +0.488 C 
ATOM     29  O   UNL     1      45.822  16.942  17.715  0.00  0.00    -0.486 OA
BRANCH  20  21
ATOM     21  C   UNL     1      45.756  19.045  18.701  0.00  0.00    -0.055 C 
ATOM     22  C   UNL     1      45.178  18.929  19.915  0.00  0.00    +0.139 C 
BRANCH  22  23
ATOM     23  C   UNL     1      45.444  17.744  20.747  0.00  0.00    -0.084 A 
ATOM     24  C   UNL     1      46.504  17.750  21.660  0.00  0.00    +0.067 A 
ATOM     25  C   UNL     1      46.746  16.636  22.436  0.00  0.00    -0.010 A 
ATOM     26  C   UNL     1      45.945  15.515  22.311  0.00  0.00    +0.016 A 
ATOM     27  C   UNL     1      44.895  15.501  21.410  0.00  0.00    -0.010 A 
ATOM     28  C   UNL     1      44.636  16.610  20.631  0.00  0.00    +0.027 A 
ENDBRANCH  22  23
ENDBRANCH  20  21
ENDBRANCH  19  20
ENDBRANCH  18  19
TORSDOF 6
ENDMDL
MODEL 8
REMARK VINA RESULT:      -5.5      1.525      3.858
REMARK  Name = ZINC95485995
REMARK  13 active torsions:
REMARK  status: ('A' for Active; 'I' for Inactive)
REMARK    1  A    between atoms: C1_1  and  C2_2
REMARK    2  A    between atoms: C6_8  and  C27_35
REMARK    3  A    between atoms: C6_8  and  C28_36
REMARK    4  A    between atoms: C7_9  and  C25_32
REMARK    5  A    between atoms: C8_11  and  C21_28
REMARK    6  A    between atoms: C8_11  and  C22_29
REMARK    7  A    between atoms: C9_12  and  O1_17
REMARK    8  A    between atoms: O1_17  and  C12_18
REMARK    9  A    between atoms: C12_18  and  C13_20
REMARK   10  A    between atoms: C14_21  and  C15_22
REMARK   11  A    between atoms: C22_29  and  C23_30
REMARK   12  A    between atoms: C22_29  and  C24_31
REMARK   13  A    between atoms: C25_32  and  C26_34
REMARK                            x       y       z     vdW  Elec       q    Type
REMARK                         _______ _______ _______ _____ _____    ______ ____
ROOT
ATOM      1  C   UNL     1      50.946  15.403  17.205  0.00  0.00    +0.017 C 
ATOM      2  C   UNL     1      49.625  16.168  17.117  0.00  0.00    -0.026 C 
ATOM      3  C   UNL     1      48.583  15.559  18.080  0.00  0.00    +0.015 C 
ATOM      4  C   UNL     1      47.576  16.724  18.305  0.00  0.00    +0.000 C 
ATOM      5  C   UNL     1      46.844  16.477  19.572  0.00  0.00    +0.034 C 
ATOM      6  C   UNL     1      45.824  17.457  20.062  0.00  0.00    -0.033 C 
ATOM      7  C   UNL     1      44.973  16.707  21.123  0.00  0.00    +0.016 C 
ATOM      8  C   UNL     1      44.858  17.805  18.921  0.00  0.00    +0.021 C 
ATOM      9  C   UNL     1      46.333  18.686  20.724  0.00  0.00    -0.004 C 
ATOM     13  C   UNL     1      47.364  19.523  20.013  0.00  0.00    -0.029 C 
ATOM     17  C   UNL     1      46.705  20.393  18.941  0.00  0.00    +0.047 C 
ATOM     18  C   UNL     1      48.549  18.835  19.444  0.00  0.00    +0.214 C 
ATOM     30  C   UNL     1      48.404  17.983  18.224  0.00  0.00    -0.028 C 
ATOM     31  C   UNL     1      49.788  17.615  17.642  0.00  0.00    +0.017 C 
ENDROOT
BRANCH   9  10
ATOM     10  C   UNL     1      45.151  19.574  21.067  0.00  0.00    +0.356 C 
ATOM     11  C   UNL     1      44.738  19.757  22.505  0.00  0.00    +0.056 C 
ATOM     12  O   UNL     1      44.542  20.134  20.188  0.00  0.00    -0.443 OA
ENDBRANCH   9  10
BRANCH  13  14
ATOM     14  C   UNL     1      47.918  20.513  21.069  0.00  0.00    -0.029 C 
ATOM     15  C   UNL     1      47.590  19.998  22.472  0.00  0.00    +0.021 C 
ATOM     16  C   UNL     1      47.274  21.887  20.867  0.00  0.00    +0.022 C 
ENDBRANCH  13  14
BRANCH  18  19
ATOM     19  O   UNL     1      49.151  18.047  20.475  0.00  0.00    -0.336 OA
BRANCH  19  20
ATOM     20  C   UNL     1      50.482  18.180  20.649  0.00  0.00    +0.488 C 
ATOM     29  O   UNL     1      51.245  17.388  20.128  0.00  0.00    -0.486 OA
BRANCH  20  21
ATOM     21  C   UNL     1      51.008  19.274  21.464  0.00  0.00    -0.055 C 
ATOM     22  C   UNL     1      51.667  20.295  20.879  0.00  0.00    +0.139 C 
BRANCH  22  23
ATOM     23  C   UNL     1      51.657  20.434  19.413  0.00  0.00    -0.084 A 
ATOM     24  C   UNL     1      52.638  19.804  18.641  0.00  0.00    +0.067 A 
ATOM     25  C   UNL     1      52.621  19.939  17.268  0.00  0.00    -0.010 A 
ATOM     26  C   UNL     1      51.638  20.696  16.657  0.00  0.00    +0.016 A 
ATOM     27  C   UNL     1      50.663  21.322  17.414  0.00  0.00    -0.010 A 
ATOM     28  C   UNL     1      50.663  21.192  18.788  0.00  0.00    +0.027 A 
ENDBRANCH  22  23
ENDBRANCH  20  21
ENDBRANCH  19  20
ENDBRANCH  18  19
TORSDOF 6
ENDMDL
MODEL 9
REMARK VINA RESULT:      -5.4      1.737      3.117
REMARK  Name = ZINC95485995
REMARK  13 active torsions:
REMARK  status: ('A' for Active; 'I' for Inactive)
REMARK    1  A    between atoms: C1_1  and  C2_2
REMARK    2  A    between atoms: C6_8  and  C27_35
REMARK    3  A    between atoms: C6_8  and  C28_36
REMARK    4  A    between atoms: C7_9  and  C25_32
REMARK    5  A    between atoms: C8_11  and  C21_28
REMARK    6  A    between atoms: C8_11  and  C22_29
REMARK    7  A    between atoms: C9_12  and  O1_17
REMARK    8  A    between atoms: O1_17  and  C12_18
REMARK    9  A    between atoms: C12_18  and  C13_20
REMARK   10  A    between atoms: C14_21  and  C15_22
REMARK   11  A    between atoms: C22_29  and  C23_30
REMARK   12  A    between atoms: C22_29  and  C24_31
REMARK   13  A    between atoms: C25_32  and  C26_34
REMARK                            x       y       z     vdW  Elec       q    Type
REMARK                         _______ _______ _______ _____ _____    ______ ____
ROOT
ATOM      1  C   UNL     1      52.480  20.286  17.560  0.00  0.00    +0.017 C 
ATOM      2  C   UNL     1      51.541  20.395  18.761  0.00  0.00    -0.026 C 
ATOM      3  C   UNL     1      50.234  21.115  18.363  0.00  0.00    +0.015 C 
ATOM      4  C   UNL     1      49.219  20.645  19.444  0.00  0.00    +0.000 C 
ATOM      5  C   UNL     1      47.846  20.820  18.910  0.00  0.00    +0.034 C 
ATOM      6  C   UNL     1      46.657  20.419  19.728  0.00  0.00    -0.033 C 
ATOM      7  C   UNL     1      45.429  21.121  19.085  0.00  0.00    +0.016 C 
ATOM      8  C   UNL     1      46.783  21.008  21.139  0.00  0.00    +0.021 C 
ATOM      9  C   UNL     1      46.333  18.970  19.780  0.00  0.00    -0.004 C 
ATOM     13  C   UNL     1      47.415  17.995  20.165  0.00  0.00    -0.029 C 
ATOM     17  C   UNL     1      47.618  17.988  21.682  0.00  0.00    +0.047 C 
ATOM     18  C   UNL     1      48.728  18.104  19.482  0.00  0.00    +0.214 C 
ATOM     30  C   UNL     1      49.643  19.241  19.800  0.00  0.00    -0.028 C 
ATOM     31  C   UNL     1      51.051  18.997  19.209  0.00  0.00    +0.017 C 
ENDROOT
BRANCH   9  10
ATOM     10  C   UNL     1      45.157  18.773  20.718  0.00  0.00    +0.356 C 
ATOM     11  C   UNL     1      43.790  18.469  20.159  0.00  0.00    +0.056 C 
ATOM     12  O   UNL     1      45.315  18.859  21.912  0.00  0.00    -0.443 OA
ENDBRANCH   9  10
BRANCH  13  14
ATOM     14  C   UNL     1      46.871  16.587  19.813  0.00  0.00    -0.029 C 
ATOM     15  C   UNL     1      45.722  16.721  18.811  0.00  0.00    +0.021 C 
ATOM     16  C   UNL     1      46.362  15.905  21.084  0.00  0.00    +0.022 C 
ENDBRANCH  13  14
BRANCH  18  19
ATOM     19  O   UNL     1      48.503  18.088  18.070  0.00  0.00    -0.336 OA
BRANCH  19  20
ATOM     20  C   UNL     1      49.243  17.228  17.341  0.00  0.00    +0.488 C 
ATOM     29  O   UNL     1      50.237  17.621  16.761  0.00  0.00    -0.486 OA
BRANCH  20  21
ATOM     21  C   UNL     1      48.851  15.822  17.247  0.00  0.00    -0.055 C 
ATOM     22  C   UNL     1      49.604  14.870  17.836  0.00  0.00    +0.139 C 
BRANCH  22  23
ATOM     23  C   UNL     1      50.681  15.253  18.764  0.00  0.00    -0.084 A 
ATOM     24  C   UNL     1      51.974  15.486  18.282  0.00  0.00    +0.067 A 
ATOM     25  C   UNL     1      52.977  15.845  19.157  0.00  0.00    -0.010 A 
ATOM     26  C   UNL     1      52.707  15.973  20.509  0.00  0.00    +0.016 A 
ATOM     27  C   UNL     1      51.431  15.745  20.993  0.00  0.00    -0.010 A 
ATOM     28  C   UNL     1      50.415  15.391  20.129  0.00  0.00    +0.027 A 
ENDBRANCH  22  23
ENDBRANCH  20  21
ENDBRANCH  19  20
ENDBRANCH  18  19
TORSDOF 6
ENDMDL
