MODEL 1
REMARK VINA RESULT:      -5.8      0.000      0.000
REMARK  Name = ZINC14441498
REMARK  8 active torsions:
REMARK  status: ('A' for Active; 'I' for Inactive)
REMARK    1  A    between atoms: C1_1  and  C2_2
REMARK    2  A    between atoms: C3_3  and  O7_29
REMARK    3  A    between atoms: C5_6  and  C7_9
REMARK    4  A    between atoms: C8_10  and  O6_27
REMARK    5  A    between atoms: C12_14  and  O3_15
REMARK    6  A    between atoms: C15_19  and  C16_21
REMARK    7  A    between atoms: O6_27  and  C22_28
REMARK    8  A    between atoms: O7_29  and  C23_30
REMARK                            x       y       z     vdW  Elec       q    Type
REMARK                         _______ _______ _______ _____ _____    ______ ____
ROOT
ATOM      8  C   UNL     1      49.717  14.259  16.643  0.00  0.00    -0.123 A 
ATOM      9  C   UNL     1      48.347  14.025  16.468  0.00  0.00    +0.228 A 
ATOM     12  C   UNL     1      47.418  14.989  16.819  0.00  0.00    -0.093 A 
ATOM     13  C   UNL     1      47.837  16.201  17.349  0.00  0.00    +0.214 A 
ATOM     14  C   UNL     1      49.210  16.444  17.529  0.00  0.00    -0.289 A 
ATOM     15  C   UNL     1      49.627  17.741  18.090  0.00  0.00    +0.426 A 
ATOM     16  C   UNL     1      48.607  18.664  18.423  0.00  0.00    -0.142 A 
ATOM     17  C   UNL     1      47.306  18.331  18.210  0.00  0.00    +0.203 A 
ATOM     24  O   UNL     1      50.805  18.008  18.263  0.00  0.00    -0.454 OA
ATOM     25  O   UNL     1      46.939  17.148  17.694  0.00  0.00    -0.218 OA
ATOM     26  C   UNL     1      50.152  15.472  17.176  0.00  0.00    +0.262 A 
ENDROOT
BRANCH   8   7
ATOM      1  C   UNL     1      53.542  10.277  15.051  0.00  0.00    +0.182 C 
ATOM      2  C   UNL     1      52.538  11.298  15.522  0.00  0.00    +0.115 A 
ATOM      3  C   UNL     1      52.091  11.241  16.795  0.00  0.00    -0.085 A 
ATOM      6  C   UNL     1      51.144  12.207  17.235  0.00  0.00    +0.399 A 
ATOM      7  C   UNL     1      50.703  13.218  16.264  0.00  0.00    -0.200 A 
ATOM     29  C   UNL     1      51.221  13.172  15.005  0.00  0.00    +0.317 A 
ATOM     30  O   UNL     1      50.712  12.195  18.377  0.00  0.00    -0.458 OA
ATOM     31  O   UNL     1      52.112  12.235  14.667  0.00  0.00    -0.201 OA
BRANCH   3   4
ATOM      4  O   UNL     1      52.540  10.277  17.644  0.00  0.00    -0.301 OA
ATOM      5  C   UNL     1      53.622  10.626  18.507  0.00  0.00    +0.223 C 
ENDBRANCH   3   4
ENDBRANCH   8   7
BRANCH  17  18
ATOM     18  C   UNL     1      46.256  19.310  18.558  0.00  0.00    -0.073 A 
ATOM     19  C   UNL     1      46.591  20.648  18.780  0.00  0.00    +0.056 A 
ATOM     20  C   UNL     1      45.605  21.558  19.100  0.00  0.00    +0.014 A 
ATOM     21  C   UNL     1      44.290  21.146  19.213  0.00  0.00    +0.037 A 
ATOM     22  C   UNL     1      43.951  19.821  19.001  0.00  0.00    +0.009 A 
ATOM     23  C   UNL     1      44.927  18.901  18.675  0.00  0.00    +0.054 A 
ENDBRANCH  17  18
BRANCH   9  10
ATOM     10  O   UNL     1      47.927  12.843  15.948  0.00  0.00    -0.296 OA
ATOM     11  C   UNL     1      46.685  12.328  16.430  0.00  0.00    +0.256 C 
ENDBRANCH   9  10
BRANCH  26  27
ATOM     27  O   UNL     1      51.477  15.707  17.349  0.00  0.00    -0.461 OA
ATOM     28  H   UNL     1      51.748  15.768  18.275  0.00  0.00    +0.401 HD
ENDBRANCH  26  27
TORSDOF 5
ENDMDL
MODEL 2
REMARK VINA RESULT:      -5.8      2.003      2.985
REMARK  Name = ZINC14441498
REMARK  8 active torsions:
REMARK  status: ('A' for Active; 'I' for Inactive)
REMARK    1  A    between atoms: C1_1  and  C2_2
REMARK    2  A    between atoms: C3_3  and  O7_29
REMARK    3  A    between atoms: C5_6  and  C7_9
REMARK    4  A    between atoms: C8_10  and  O6_27
REMARK    5  A    between atoms: C12_14  and  O3_15
REMARK    6  A    between atoms: C15_19  and  C16_21
REMARK    7  A    between atoms: O6_27  and  C22_28
REMARK    8  A    between atoms: O7_29  and  C23_30
REMARK                            x       y       z     vdW  Elec       q    Type
REMARK                         _______ _______ _______ _____ _____    ______ ____
ROOT
ATOM      8  C   UNL     1      48.523  13.706  17.461  0.00  0.00    -0.123 A 
ATOM      9  C   UNL     1      47.436  12.989  17.978  0.00  0.00    +0.228 A 
ATOM     12  C   UNL     1      46.407  13.644  18.631  0.00  0.00    -0.093 A 
ATOM     13  C   UNL     1      46.442  15.023  18.780  0.00  0.00    +0.214 A 
ATOM     14  C   UNL     1      47.529  15.751  18.266  0.00  0.00    -0.289 A 
ATOM     15  C   UNL     1      47.539  17.214  18.434  0.00  0.00    +0.426 A 
ATOM     16  C   UNL     1      46.445  17.797  19.119  0.00  0.00    -0.142 A 
ATOM     17  C   UNL     1      45.443  17.004  19.579  0.00  0.00    +0.203 A 
ATOM     24  O   UNL     1      48.453  17.897  18.003  0.00  0.00    -0.454 OA
ATOM     25  O   UNL     1      45.443  15.671  19.416  0.00  0.00    -0.218 OA
ATOM     26  C   UNL     1      48.572  15.092  17.605  0.00  0.00    +0.262 A 
ENDROOT
BRANCH   8   7
ATOM      1  C   UNL     1      52.842  10.934  14.876  0.00  0.00    +0.182 C 
ATOM      2  C   UNL     1      51.682  11.663  15.503  0.00  0.00    +0.115 A 
ATOM      3  C   UNL     1      50.640  12.032  14.726  0.00  0.00    -0.085 A 
ATOM      6  C   UNL     1      49.548  12.720  15.321  0.00  0.00    +0.399 A 
ATOM      7  C   UNL     1      49.621  12.993  16.764  0.00  0.00    -0.200 A 
ATOM     29  C   UNL     1      50.725  12.577  17.444  0.00  0.00    +0.317 A 
ATOM     30  O   UNL     1      48.585  13.072  14.659  0.00  0.00    -0.458 OA
ATOM     31  O   UNL     1      51.712  11.930  16.814  0.00  0.00    -0.201 OA
BRANCH   3   4
ATOM      4  O   UNL     1      50.636  11.749  13.395  0.00  0.00    -0.301 OA
ATOM      5  C   UNL     1      50.962  12.817  12.504  0.00  0.00    +0.223 C 
ENDBRANCH   3   4
ENDBRANCH   8   7
BRANCH  17  18
ATOM     18  C   UNL     1      44.307  17.631  20.286  0.00  0.00    -0.073 A 
ATOM     19  C   UNL     1      43.662  18.740  19.731  0.00  0.00    +0.056 A 
ATOM     20  C   UNL     1      42.600  19.317  20.394  0.00  0.00    +0.014 A 
ATOM     21  C   UNL     1      42.180  18.810  21.610  0.00  0.00    +0.037 A 
ATOM     22  C   UNL     1      42.817  17.715  22.168  0.00  0.00    +0.009 A 
ATOM     23  C   UNL     1      43.879  17.124  21.514  0.00  0.00    +0.054 A 
ENDBRANCH  17  18
BRANCH   9  10
ATOM     10  O   UNL     1      47.392  11.639  17.835  0.00  0.00    -0.296 OA
ATOM     11  C   UNL     1      46.428  11.116  16.920  0.00  0.00    +0.256 C 
ENDBRANCH   9  10
BRANCH  26  27
ATOM     27  O   UNL     1      49.620  15.795  17.107  0.00  0.00    -0.461 OA
ATOM     28  H   UNL     1      50.481  15.383  17.266  0.00  0.00    +0.401 HD
ENDBRANCH  26  27
TORSDOF 5
ENDMDL
MODEL 3
REMARK VINA RESULT:      -5.6      1.485      3.130
REMARK  Name = ZINC14441498
REMARK  8 active torsions:
REMARK  status: ('A' for Active; 'I' for Inactive)
REMARK    1  A    between atoms: C1_1  and  C2_2
REMARK    2  A    between atoms: C3_3  and  O7_29
REMARK    3  A    between atoms: C5_6  and  C7_9
REMARK    4  A    between atoms: C8_10  and  O6_27
REMARK    5  A    between atoms: C12_14  and  O3_15
REMARK    6  A    between atoms: C15_19  and  C16_21
REMARK    7  A    between atoms: O6_27  and  C22_28
REMARK    8  A    between atoms: O7_29  and  C23_30
REMARK                            x       y       z     vdW  Elec       q    Type
REMARK                         _______ _______ _______ _____ _____    ______ ____
ROOT
ATOM      8  C   UNL     1      49.584  15.087  17.321  0.00  0.00    -0.123 A 
ATOM      9  C   UNL     1      50.078  16.379  17.096  0.00  0.00    +0.228 A 
ATOM     12  C   UNL     1      49.306  17.489  17.393  0.00  0.00    -0.093 A 
ATOM     13  C   UNL     1      48.031  17.332  17.916  0.00  0.00    +0.214 A 
ATOM     14  C   UNL     1      47.526  16.039  18.144  0.00  0.00    -0.289 A 
ATOM     15  C   UNL     1      46.172  15.901  18.705  0.00  0.00    +0.426 A 
ATOM     16  C   UNL     1      45.454  17.092  18.973  0.00  0.00    -0.142 A 
ATOM     17  C   UNL     1      46.032  18.295  18.716  0.00  0.00    +0.203 A 
ATOM     24  O   UNL     1      45.686  14.805  18.928  0.00  0.00    -0.454 OA
ATOM     25  O   UNL     1      47.270  18.408  18.209  0.00  0.00    -0.218 OA
ATOM     26  C   UNL     1      48.304  14.915  17.846  0.00  0.00    +0.262 A 
ENDROOT
BRANCH   8   7
ATOM      1  C   UNL     1      52.903  10.538  16.176  0.00  0.00    +0.182 C 
ATOM      2  C   UNL     1      51.999  11.717  16.431  0.00  0.00    +0.115 A 
ATOM      3  C   UNL     1      50.949  11.930  15.609  0.00  0.00    -0.085 A 
ATOM      6  C   UNL     1      50.098  13.042  15.854  0.00  0.00    +0.399 A 
ATOM      7  C   UNL     1      50.420  13.906  16.998  0.00  0.00    -0.200 A 
ATOM     29  C   UNL     1      51.510  13.595  17.754  0.00  0.00    +0.317 A 
ATOM     30  O   UNL     1      49.137  13.273  15.137  0.00  0.00    -0.458 OA
ATOM     31  O   UNL     1      52.260  12.526  17.464  0.00  0.00    -0.201 OA
BRANCH   3   4
ATOM      4  O   UNL     1      50.707  11.091  14.565  0.00  0.00    -0.301 OA
ATOM      5  C   UNL     1      51.117  11.532  13.270  0.00  0.00    +0.223 C 
ENDBRANCH   3   4
ENDBRANCH   8   7
BRANCH  17  18
ATOM     18  C   UNL     1      45.270  19.526  19.009  0.00  0.00    -0.073 A 
ATOM     19  C   UNL     1      45.896  20.773  18.931  0.00  0.00    +0.056 A 
ATOM     20  C   UNL     1      45.178  21.919  19.200  0.00  0.00    +0.014 A 
ATOM     21  C   UNL     1      43.844  21.835  19.558  0.00  0.00    +0.037 A 
ATOM     22  C   UNL     1      43.219  20.603  19.642  0.00  0.00    +0.009 A 
ATOM     23  C   UNL     1      43.924  19.449  19.371  0.00  0.00    +0.054 A 
ENDBRANCH  17  18
BRANCH   9  10
ATOM     10  O   UNL     1      51.325  16.544  16.586  0.00  0.00    -0.296 OA
ATOM     11  C   UNL     1      51.751  17.884  16.335  0.00  0.00    +0.256 C 
ENDBRANCH   9  10
BRANCH  26  27
ATOM     27  O   UNL     1      47.818  13.667  18.066  0.00  0.00    -0.461 OA
ATOM     28  H   UNL     1      47.918  13.067  17.314  0.00  0.00    +0.401 HD
ENDBRANCH  26  27
TORSDOF 5
ENDMDL
MODEL 4
REMARK VINA RESULT:      -5.5      1.412      2.887
REMARK  Name = ZINC14441498
REMARK  8 active torsions:
REMARK  status: ('A' for Active; 'I' for Inactive)
REMARK    1  A    between atoms: C1_1  and  C2_2
REMARK    2  A    between atoms: C3_3  and  O7_29
REMARK    3  A    between atoms: C5_6  and  C7_9
REMARK    4  A    between atoms: C8_10  and  O6_27
REMARK    5  A    between atoms: C12_14  and  O3_15
REMARK    6  A    between atoms: C15_19  and  C16_21
REMARK    7  A    between atoms: O6_27  and  C22_28
REMARK    8  A    between atoms: O7_29  and  C23_30
REMARK                            x       y       z     vdW  Elec       q    Type
REMARK                         _______ _______ _______ _____ _____    ______ ____
ROOT
ATOM      8  C   UNL     1      49.669  15.268  17.288  0.00  0.00    -0.123 A 
ATOM      9  C   UNL     1      50.167  16.567  17.119  0.00  0.00    +0.228 A 
ATOM     12  C   UNL     1      49.384  17.666  17.427  0.00  0.00    -0.093 A 
ATOM     13  C   UNL     1      48.094  17.491  17.907  0.00  0.00    +0.214 A 
ATOM     14  C   UNL     1      47.586  16.192  18.079  0.00  0.00    -0.289 A 
ATOM     15  C   UNL     1      46.216  16.035  18.596  0.00  0.00    +0.426 A 
ATOM     16  C   UNL     1      45.488  17.216  18.880  0.00  0.00    -0.142 A 
ATOM     17  C   UNL     1      46.071  18.427  18.678  0.00  0.00    +0.203 A 
ATOM     24  O   UNL     1      45.726  14.931  18.770  0.00  0.00    -0.454 OA
ATOM     25  O   UNL     1      47.323  18.557  18.211  0.00  0.00    -0.218 OA
ATOM     26  C   UNL     1      48.375  15.078  17.769  0.00  0.00    +0.262 A 
ENDROOT
BRANCH   8   7
ATOM      1  C   UNL     1      52.903  10.736  15.868  0.00  0.00    +0.182 C 
ATOM      2  C   UNL     1      52.078  11.923  16.294  0.00  0.00    +0.115 A 
ATOM      3  C   UNL     1      52.194  12.385  17.558  0.00  0.00    -0.085 A 
ATOM      6  C   UNL     1      51.414  13.505  17.955  0.00  0.00    +0.399 A 
ATOM      7  C   UNL     1      50.517  14.098  16.953  0.00  0.00    -0.200 A 
ATOM     29  C   UNL     1      50.481  13.543  15.710  0.00  0.00    +0.317 A 
ATOM     30  O   UNL     1      51.486  13.956  19.087  0.00  0.00    -0.458 OA
ATOM     31  O   UNL     1      51.250  12.491  15.410  0.00  0.00    -0.201 OA
BRANCH   3   4
ATOM      4  O   UNL     1      53.044  11.787  18.437  0.00  0.00    -0.301 OA
ATOM      5  C   UNL     1      52.483  10.819  19.325  0.00  0.00    +0.223 C 
ENDBRANCH   3   4
ENDBRANCH   8   7
BRANCH  17  18
ATOM     18  C   UNL     1      45.299  19.648  18.986  0.00  0.00    -0.073 A 
ATOM     19  C   UNL     1      43.937  19.558  19.285  0.00  0.00    +0.056 A 
ATOM     20  C   UNL     1      43.223  20.702  19.576  0.00  0.00    +0.014 A 
ATOM     21  C   UNL     1      43.848  21.935  19.562  0.00  0.00    +0.037 A 
ATOM     22  C   UNL     1      45.196  22.032  19.261  0.00  0.00    +0.009 A 
ATOM     23  C   UNL     1      45.924  20.896  18.972  0.00  0.00    +0.054 A 
ENDBRANCH  17  18
BRANCH   9  10
ATOM     10  O   UNL     1      51.428  16.749  16.651  0.00  0.00    -0.296 OA
ATOM     11  C   UNL     1      51.743  18.038  16.120  0.00  0.00    +0.256 C 
ENDBRANCH   9  10
BRANCH  26  27
ATOM     27  O   UNL     1      47.885  13.824  17.936  0.00  0.00    -0.461 OA
ATOM     28  H   UNL     1      48.245  13.175  17.315  0.00  0.00    +0.401 HD
ENDBRANCH  26  27
TORSDOF 5
ENDMDL
MODEL 5
REMARK VINA RESULT:      -5.4      2.370      9.135
REMARK  Name = ZINC14441498
REMARK  8 active torsions:
REMARK  status: ('A' for Active; 'I' for Inactive)
REMARK    1  A    between atoms: C1_1  and  C2_2
REMARK    2  A    between atoms: C3_3  and  O7_29
REMARK    3  A    between atoms: C5_6  and  C7_9
REMARK    4  A    between atoms: C8_10  and  O6_27
REMARK    5  A    between atoms: C12_14  and  O3_15
REMARK    6  A    between atoms: C15_19  and  C16_21
REMARK    7  A    between atoms: O6_27  and  C22_28
REMARK    8  A    between atoms: O7_29  and  C23_30
REMARK                            x       y       z     vdW  Elec       q    Type
REMARK                         _______ _______ _______ _____ _____    ______ ____
ROOT
ATOM      8  C   UNL     1      47.146  17.001  18.884  0.00  0.00    -0.123 A 
ATOM      9  C   UNL     1      48.406  17.365  18.392  0.00  0.00    +0.228 A 
ATOM     12  C   UNL     1      49.108  16.516  17.555  0.00  0.00    -0.093 A 
ATOM     13  C   UNL     1      48.568  15.290  17.194  0.00  0.00    +0.214 A 
ATOM     14  C   UNL     1      47.305  14.915  17.684  0.00  0.00    -0.289 A 
ATOM     15  C   UNL     1      46.753  13.610  17.280  0.00  0.00    +0.426 A 
ATOM     16  C   UNL     1      47.544  12.806  16.424  0.00  0.00    -0.142 A 
ATOM     17  C   UNL     1      48.755  13.260  16.007  0.00  0.00    +0.203 A 
ATOM     24  O   UNL     1      45.659  13.235  17.670  0.00  0.00    -0.454 OA
ATOM     25  O   UNL     1      49.245  14.454  16.378  0.00  0.00    -0.218 OA
ATOM     26  C   UNL     1      46.592  15.771  18.530  0.00  0.00    +0.262 A 
ENDROOT
BRANCH   8   7
ATOM      1  C   UNL     1      44.325  20.499  22.465  0.00  0.00    +0.182 C 
ATOM      2  C   UNL     1      45.040  19.609  21.481  0.00  0.00    +0.115 A 
ATOM      3  C   UNL     1      44.829  19.788  20.159  0.00  0.00    -0.085 A 
ATOM      6  C   UNL     1      45.506  18.947  19.234  0.00  0.00    +0.399 A 
ATOM      7  C   UNL     1      46.404  17.919  19.781  0.00  0.00    -0.200 A 
ATOM     29  C   UNL     1      46.533  17.830  21.134  0.00  0.00    +0.317 A 
ATOM     30  O   UNL     1      45.346  19.072  18.031  0.00  0.00    -0.458 OA
ATOM     31  O   UNL     1      45.866  18.662  21.940  0.00  0.00    -0.201 OA
BRANCH   3   4
ATOM      4  O   UNL     1      43.983  20.759  19.719  0.00  0.00    -0.301 OA
ATOM      5  C   UNL     1      42.667  20.352  19.346  0.00  0.00    +0.223 C 
ENDBRANCH   3   4
ENDBRANCH   8   7
BRANCH  17  18
ATOM     18  C   UNL     1      49.563  12.410  15.110  0.00  0.00    -0.073 A 
ATOM     19  C   UNL     1      49.791  11.070  15.432  0.00  0.00    +0.056 A 
ATOM     20  C   UNL     1      50.542  10.280  14.586  0.00  0.00    +0.014 A 
ATOM     21  C   UNL     1      51.078  10.814  13.429  0.00  0.00    +0.037 A 
ATOM     22  C   UNL     1      50.861  12.142  13.106  0.00  0.00    +0.009 A 
ATOM     23  C   UNL     1      50.107  12.943  13.940  0.00  0.00    +0.054 A 
ENDBRANCH  17  18
BRANCH   9  10
ATOM     10  O   UNL     1      48.943  18.564  18.738  0.00  0.00    -0.296 OA
ATOM     11  C   UNL     1      50.140  18.537  19.517  0.00  0.00    +0.256 C 
ENDBRANCH   9  10
BRANCH  26  27
ATOM     27  O   UNL     1      45.372  15.410  19.001  0.00  0.00    -0.461 OA
ATOM     28  H   UNL     1      45.240  14.453  19.058  0.00  0.00    +0.401 HD
ENDBRANCH  26  27
TORSDOF 5
ENDMDL
MODEL 6
REMARK VINA RESULT:      -5.4      2.993      4.920
REMARK  Name = ZINC14441498
REMARK  8 active torsions:
REMARK  status: ('A' for Active; 'I' for Inactive)
REMARK    1  A    between atoms: C1_1  and  C2_2
REMARK    2  A    between atoms: C3_3  and  O7_29
REMARK    3  A    between atoms: C5_6  and  C7_9
REMARK    4  A    between atoms: C8_10  and  O6_27
REMARK    5  A    between atoms: C12_14  and  O3_15
REMARK    6  A    between atoms: C15_19  and  C16_21
REMARK    7  A    between atoms: O6_27  and  C22_28
REMARK    8  A    between atoms: O7_29  and  C23_30
REMARK                            x       y       z     vdW  Elec       q    Type
REMARK                         _______ _______ _______ _____ _____    ______ ____
ROOT
ATOM      8  C   UNL     1      47.218  15.904  18.694  0.00  0.00    -0.123 A 
ATOM      9  C   UNL     1      48.275  16.779  18.406  0.00  0.00    +0.228 A 
ATOM     12  C   UNL     1      48.162  18.131  18.677  0.00  0.00    -0.093 A 
ATOM     13  C   UNL     1      46.999  18.636  19.239  0.00  0.00    +0.214 A 
ATOM     14  C   UNL     1      45.933  17.766  19.530  0.00  0.00    -0.289 A 
ATOM     15  C   UNL     1      44.711  18.327  20.131  0.00  0.00    +0.426 A 
ATOM     16  C   UNL     1      44.685  19.723  20.369  0.00  0.00    -0.142 A 
ATOM     17  C   UNL     1      45.769  20.478  20.050  0.00  0.00    +0.203 A 
ATOM     24  O   UNL     1      43.757  17.619  20.409  0.00  0.00    -0.454 OA
ATOM     25  O   UNL     1      46.880  19.953  19.507  0.00  0.00    -0.218 OA
ATOM     26  C   UNL     1      46.043  16.398  19.257  0.00  0.00    +0.262 A 
ENDROOT
BRANCH   8   7
ATOM      1  C   UNL     1      47.771  10.277  17.672  0.00  0.00    +0.182 C 
ATOM      2  C   UNL     1      47.607  11.760  17.885  0.00  0.00    +0.115 A 
ATOM      3  C   UNL     1      47.171  12.527  16.863  0.00  0.00    -0.085 A 
ATOM      6  C   UNL     1      47.017  13.925  17.068  0.00  0.00    +0.399 A 
ATOM      7  C   UNL     1      47.350  14.457  18.398  0.00  0.00    -0.200 A 
ATOM     29  C   UNL     1      47.786  13.586  19.350  0.00  0.00    +0.317 A 
ATOM     30  O   UNL     1      46.626  14.657  16.173  0.00  0.00    -0.458 OA
ATOM     31  O   UNL     1      47.900  12.282  19.082  0.00  0.00    -0.201 OA
BRANCH   3   4
ATOM      4  O   UNL     1      46.882  11.970  15.655  0.00  0.00    -0.301 OA
ATOM      5  C   UNL     1      47.888  12.051  14.645  0.00  0.00    +0.223 C 
ENDBRANCH   3   4
ENDBRANCH   8   7
BRANCH  17  18
ATOM     18  C   UNL     1      45.726  21.931  20.312  0.00  0.00    -0.073 A 
ATOM     19  C   UNL     1      44.894  22.756  19.551  0.00  0.00    +0.056 A 
ATOM     20  C   UNL     1      44.855  24.111  19.805  0.00  0.00    +0.014 A 
ATOM     21  C   UNL     1      45.644  24.655  20.801  0.00  0.00    +0.037 A 
ATOM     22  C   UNL     1      46.475  23.845  21.555  0.00  0.00    +0.009 A 
ATOM     23  C   UNL     1      46.522  22.486  21.316  0.00  0.00    +0.054 A 
ENDBRANCH  17  18
BRANCH   9  10
ATOM     10  O   UNL     1      49.419  16.294  17.858  0.00  0.00    -0.296 OA
ATOM     11  C   UNL     1      50.309  17.245  17.270  0.00  0.00    +0.256 C 
ENDBRANCH   9  10
BRANCH  26  27
ATOM     27  O   UNL     1      45.015  15.559  19.539  0.00  0.00    -0.461 OA
ATOM     28  H   UNL     1      44.154  15.996  19.598  0.00  0.00    +0.401 HD
ENDBRANCH  26  27
TORSDOF 5
ENDMDL
MODEL 7
REMARK VINA RESULT:      -5.3      1.462      2.301
REMARK  Name = ZINC14441498
REMARK  8 active torsions:
REMARK  status: ('A' for Active; 'I' for Inactive)
REMARK    1  A    between atoms: C1_1  and  C2_2
REMARK    2  A    between atoms: C3_3  and  O7_29
REMARK    3  A    between atoms: C5_6  and  C7_9
REMARK    4  A    between atoms: C8_10  and  O6_27
REMARK    5  A    between atoms: C12_14  and  O3_15
REMARK    6  A    between atoms: C15_19  and  C16_21
REMARK    7  A    between atoms: O6_27  and  C22_28
REMARK    8  A    between atoms: O7_29  and  C23_30
REMARK                            x       y       z     vdW  Elec       q    Type
REMARK                         _______ _______ _______ _____ _____    ______ ____
ROOT
ATOM      8  C   UNL     1      50.216  14.700  17.610  0.00  0.00    -0.123 A 
ATOM      9  C   UNL     1      48.933  14.473  18.125  0.00  0.00    +0.228 A 
ATOM     12  C   UNL     1      48.156  15.528  18.569  0.00  0.00    -0.093 A 
ATOM     13  C   UNL     1      48.642  16.826  18.508  0.00  0.00    +0.214 A 
ATOM     14  C   UNL     1      49.929  17.063  17.993  0.00  0.00    -0.289 A 
ATOM     15  C   UNL     1      50.419  18.452  17.935  0.00  0.00    +0.426 A 
ATOM     16  C   UNL     1      49.556  19.466  18.415  0.00  0.00    -0.142 A 
ATOM     17  C   UNL     1      48.329  19.132  18.895  0.00  0.00    +0.203 A 
ATOM     24  O   UNL     1      51.524  18.717  17.494  0.00  0.00    -0.454 OA
ATOM     25  O   UNL     1      47.892  17.863  18.938  0.00  0.00    -0.218 OA
ATOM     26  C   UNL     1      50.717  15.999  17.544  0.00  0.00    +0.262 A 
ENDROOT
BRANCH   8   7
ATOM      1  C   UNL     1      53.464  10.277  15.904  0.00  0.00    +0.182 C 
ATOM      2  C   UNL     1      52.588  11.439  16.298  0.00  0.00    +0.115 A 
ATOM      3  C   UNL     1      51.753  11.974  15.381  0.00  0.00    -0.085 A 
ATOM      6  C   UNL     1      50.929  13.069  15.758  0.00  0.00    +0.399 A 
ATOM      7  C   UNL     1      51.040  13.560  17.138  0.00  0.00    -0.200 A 
ATOM     29  C   UNL     1      51.922  12.944  17.973  0.00  0.00    +0.317 A 
ATOM     30  O   UNL     1      50.159  13.584  14.962  0.00  0.00    -0.458 OA
ATOM     31  O   UNL     1      52.660  11.914  17.547  0.00  0.00    -0.201 OA
BRANCH   3   4
ATOM      4  O   UNL     1      51.701  11.471  14.117  0.00  0.00    -0.301 OA
ATOM      5  C   UNL     1      50.704  10.483  13.854  0.00  0.00    +0.223 C 
ENDBRANCH   3   4
ENDBRANCH   8   7
BRANCH  17  18
ATOM     18  C   UNL     1      47.440  20.205  19.385  0.00  0.00    -0.073 A 
ATOM     19  C   UNL     1      46.278  20.530  18.681  0.00  0.00    +0.056 A 
ATOM     20  C   UNL     1      45.451  21.529  19.148  0.00  0.00    +0.014 A 
ATOM     21  C   UNL     1      45.775  22.218  20.303  0.00  0.00    +0.037 A 
ATOM     22  C   UNL     1      46.928  21.906  21.002  0.00  0.00    +0.009 A 
ATOM     23  C   UNL     1      47.763  20.904  20.550  0.00  0.00    +0.054 A 
ENDBRANCH  17  18
BRANCH   9  10
ATOM     10  O   UNL     1      48.447  13.206  18.188  0.00  0.00    -0.296 OA
ATOM     11  C   UNL     1      47.095  13.052  18.622  0.00  0.00    +0.256 C 
ENDBRANCH   9  10
BRANCH  26  27
ATOM     27  O   UNL     1      51.959  16.228  17.047  0.00  0.00    -0.461 OA
ATOM     28  H   UNL     1      52.131  17.154  16.827  0.00  0.00    +0.401 HD
ENDBRANCH  26  27
TORSDOF 5
ENDMDL
MODEL 8
REMARK VINA RESULT:      -5.2      2.219      3.838
REMARK  Name = ZINC14441498
REMARK  8 active torsions:
REMARK  status: ('A' for Active; 'I' for Inactive)
REMARK    1  A    between atoms: C1_1  and  C2_2
REMARK    2  A    between atoms: C3_3  and  O7_29
REMARK    3  A    between atoms: C5_6  and  C7_9
REMARK    4  A    between atoms: C8_10  and  O6_27
REMARK    5  A    between atoms: C12_14  and  O3_15
REMARK    6  A    between atoms: C15_19  and  C16_21
REMARK    7  A    between atoms: O6_27  and  C22_28
REMARK    8  A    between atoms: O7_29  and  C23_30
REMARK                            x       y       z     vdW  Elec       q    Type
REMARK                         _______ _______ _______ _____ _____    ______ ____
ROOT
ATOM      8  C   UNL     1      49.624  13.847  17.841  0.00  0.00    -0.123 A 
ATOM      9  C   UNL     1      49.935  15.188  18.102  0.00  0.00    +0.228 A 
ATOM     12  C   UNL     1      49.000  16.027  18.681  0.00  0.00    -0.093 A 
ATOM     13  C   UNL     1      47.740  15.547  19.008  0.00  0.00    +0.214 A 
ATOM     14  C   UNL     1      47.419  14.203  18.749  0.00  0.00    -0.289 A 
ATOM     15  C   UNL     1      46.076  13.718  19.112  0.00  0.00    +0.426 A 
ATOM     16  C   UNL     1      45.184  14.650  19.696  0.00  0.00    -0.142 A 
ATOM     17  C   UNL     1      45.592  15.929  19.904  0.00  0.00    +0.203 A 
ATOM     24  O   UNL     1      45.744  12.561  18.915  0.00  0.00    -0.454 OA
ATOM     25  O   UNL     1      46.821  16.358  19.574  0.00  0.00    -0.218 OA
ATOM     26  C   UNL     1      48.362  13.351  18.164  0.00  0.00    +0.262 A 
ENDROOT
BRANCH   8   7
ATOM      1  C   UNL     1      53.591  10.373  15.555  0.00  0.00    +0.182 C 
ATOM      2  C   UNL     1      52.530  11.295  16.101  0.00  0.00    +0.115 A 
ATOM      3  C   UNL     1      51.676  11.895  15.244  0.00  0.00    -0.085 A 
ATOM      6  C   UNL     1      50.677  12.763  15.763  0.00  0.00    +0.399 A 
ATOM      7  C   UNL     1      50.635  12.957  17.219  0.00  0.00    -0.200 A 
ATOM     29  C   UNL     1      51.552  12.302  17.984  0.00  0.00    +0.317 A 
ATOM     30  O   UNL     1      49.884  13.327  15.027  0.00  0.00    -0.458 OA
ATOM     31  O   UNL     1      52.460  11.497  17.422  0.00  0.00    -0.201 OA
BRANCH   3   4
ATOM      4  O   UNL     1      51.770  11.672  13.904  0.00  0.00    -0.301 OA
ATOM      5  C   UNL     1      51.026  10.574  13.376  0.00  0.00    +0.223 C 
ENDBRANCH   3   4
ENDBRANCH   8   7
BRANCH  17  18
ATOM     18  C   UNL     1      44.649  16.885  20.520  0.00  0.00    -0.073 A 
ATOM     19  C   UNL     1      44.040  16.581  21.741  0.00  0.00    +0.056 A 
ATOM     20  C   UNL     1      43.165  17.480  22.312  0.00  0.00    +0.014 A 
ATOM     21  C   UNL     1      42.880  18.674  21.675  0.00  0.00    +0.037 A 
ATOM     22  C   UNL     1      43.474  18.979  20.463  0.00  0.00    +0.009 A 
ATOM     23  C   UNL     1      44.356  18.091  19.881  0.00  0.00    +0.054 A 
ENDBRANCH  17  18
BRANCH   9  10
ATOM     10  O   UNL     1      51.166  15.667  17.786  0.00  0.00    -0.296 OA
ATOM     11  C   UNL     1      51.219  16.935  17.130  0.00  0.00    +0.256 C 
ENDBRANCH   9  10
BRANCH  26  27
ATOM     27  O   UNL     1      48.052  12.054  17.915  0.00  0.00    -0.461 OA
ATOM     28  H   UNL     1      48.426  11.430  18.553  0.00  0.00    +0.401 HD
ENDBRANCH  26  27
TORSDOF 5
ENDMDL
MODEL 9
REMARK VINA RESULT:      -5.1      2.444      9.272
REMARK  Name = ZINC14441498
REMARK  8 active torsions:
REMARK  status: ('A' for Active; 'I' for Inactive)
REMARK    1  A    between atoms: C1_1  and  C2_2
REMARK    2  A    between atoms: C3_3  and  O7_29
REMARK    3  A    between atoms: C5_6  and  C7_9
REMARK    4  A    between atoms: C8_10  and  O6_27
REMARK    5  A    between atoms: C12_14  and  O3_15
REMARK    6  A    between atoms: C15_19  and  C16_21
REMARK    7  A    between atoms: O6_27  and  C22_28
REMARK    8  A    between atoms: O7_29  and  C23_30
REMARK                            x       y       z     vdW  Elec       q    Type
REMARK                         _______ _______ _______ _____ _____    ______ ____
ROOT
ATOM      8  C   UNL     1      46.661  15.740  19.612  0.00  0.00    -0.123 A 
ATOM      9  C   UNL     1      47.977  16.193  19.773  0.00  0.00    +0.228 A 
ATOM     12  C   UNL     1      49.040  15.456  19.281  0.00  0.00    -0.093 A 
ATOM     13  C   UNL     1      48.811  14.258  18.620  0.00  0.00    +0.214 A 
ATOM     14  C   UNL     1      47.494  13.795  18.454  0.00  0.00    -0.289 A 
ATOM     15  C   UNL     1      47.280  12.522  17.744  0.00  0.00    +0.426 A 
ATOM     16  C   UNL     1      48.427  11.835  17.279  0.00  0.00    -0.142 A 
ATOM     17  C   UNL     1      49.660  12.368  17.492  0.00  0.00    +0.203 A 
ATOM     24  O   UNL     1      46.159  12.075  17.567  0.00  0.00    -0.454 OA
ATOM     25  O   UNL     1      49.842  13.532  18.136  0.00  0.00    -0.218 OA
ATOM     26  C   UNL     1      46.417  14.537  18.951  0.00  0.00    +0.262 A 
ENDROOT
BRANCH   8   7
ATOM      1  C   UNL     1      42.276  18.752  21.785  0.00  0.00    +0.182 C 
ATOM      2  C   UNL     1      43.426  17.997  21.169  0.00  0.00    +0.115 A 
ATOM      3  C   UNL     1      43.893  18.382  19.961  0.00  0.00    -0.085 A 
ATOM      6  C   UNL     1      44.978  17.667  19.384  0.00  0.00    +0.399 A 
ATOM      7  C   UNL     1      45.530  16.537  20.144  0.00  0.00    -0.200 A 
ATOM     29  C   UNL     1      44.972  16.239  21.351  0.00  0.00    +0.317 A 
ATOM     30  O   UNL     1      45.433  17.980  18.295  0.00  0.00    -0.458 OA
ATOM     31  O   UNL     1      43.955  16.962  21.831  0.00  0.00    -0.201 OA
BRANCH   3   4
ATOM      4  O   UNL     1      43.335  19.438  19.309  0.00  0.00    -0.301 OA
ATOM      5  C   UNL     1      43.989  20.701  19.442  0.00  0.00    +0.223 C 
ENDBRANCH   3   4
ENDBRANCH   8   7
BRANCH  17  18
ATOM     18  C   UNL     1      50.844  11.640  16.993  0.00  0.00    -0.073 A 
ATOM     19  C   UNL     1      51.997  11.556  17.778  0.00  0.00    +0.056 A 
ATOM     20  C   UNL     1      53.097  10.870  17.309  0.00  0.00    +0.014 A 
ATOM     21  C   UNL     1      53.066  10.278  16.059  0.00  0.00    +0.037 A 
ATOM     22  C   UNL     1      51.930  10.362  15.273  0.00  0.00    +0.009 A 
ATOM     23  C   UNL     1      50.820  11.041  15.732  0.00  0.00    +0.054 A 
ENDBRANCH  17  18
BRANCH   9  10
ATOM     10  O   UNL     1      48.211  17.365  20.417  0.00  0.00    -0.296 OA
ATOM     11  C   UNL     1      48.782  18.424  19.647  0.00  0.00    +0.256 C 
ENDBRANCH   9  10
BRANCH  26  27
ATOM     27  O   UNL     1      45.146  14.091  18.790  0.00  0.00    -0.461 OA
ATOM     28  H   UNL     1      44.487  14.587  19.295  0.00  0.00    +0.401 HD
ENDBRANCH  26  27
TORSDOF 5
ENDMDL
