MODEL 1
REMARK VINA RESULT:      -5.5      0.000      0.000
REMARK  Name = ZINC95486290
REMARK  12 active torsions:
REMARK  status: ('A' for Active; 'I' for Inactive)
REMARK    1  A    between atoms: C1_1  and  O1_2
REMARK    2  A    between atoms: O1_2  and  C2_3
REMARK    3  A    between atoms: C2_3  and  C3_5
REMARK    4  A    between atoms: C3_5  and  C5_7
REMARK    5  A    between atoms: C6_9  and  O9_34
REMARK    6  A    between atoms: C8_12  and  C20_32
REMARK    7  A    between atoms: C11_18  and  C18_30
REMARK    8  A    between atoms: C13_21  and  O5_23
REMARK    9  A    between atoms: O5_23  and  C14_24
REMARK   10  A    between atoms: C14_24  and  C15_26
REMARK   11  A    between atoms: C15_26  and  C17_28
REMARK   12  A    between atoms: C17_28  and  O7_29
REMARK                            x       y       z     vdW  Elec       q    Type
REMARK                         _______ _______ _______ _____ _____    ______ ____
ROOT
ATOM      5  C   UNL     1      43.884  18.923  19.942  0.00  0.00    +0.026 C 
ATOM      6  C   UNL     1      44.314  17.832  20.925  0.00  0.00    +0.186 C 
ATOM      9  C   UNL     1      44.807  16.610  20.147  0.00  0.00    +0.090 C 
ATOM     10  C   UNL     1      46.281  16.359  20.471  0.00  0.00    -0.030 C 
ATOM     13  C   UNL     1      47.126  16.718  19.275  0.00  0.00    +0.499 C 
ATOM     14  O   UNL     1      47.916  17.802  19.312  0.00  0.00    -0.364 OA
ATOM     15  C   UNL     1      47.618  18.854  18.392  0.00  0.00    +0.248 C 
ATOM     16  C   UNL     1      47.114  20.077  19.161  0.00  0.00    +0.008 C 
ATOM     19  C   UNL     1      45.639  20.314  18.831  0.00  0.00    +0.021 C 
ATOM     20  O   UNL     1      47.092  16.029  18.284  0.00  0.00    -0.469 OA
ATOM     21  C   UNL     1      44.798  20.140  20.099  0.00  0.00    +0.213 C 
ENDROOT
BRANCH   5   4
ATOM      4  C   UNL     1      42.460  19.324  20.229  0.00  0.00    -0.144 C 
ATOM     30  C   UNL     1      41.913  19.038  21.408  0.00  0.00    +0.173 C 
BRANCH   4   3
ATOM      3  C   UNL     1      41.675  20.029  19.207  0.00  0.00    +0.511 C 
ATOM     31  O   UNL     1      42.042  20.024  18.047  0.00  0.00    -0.503 OA
BRANCH   3   2
ATOM      1  C   UNL     1      39.919  21.473  18.543  0.00  0.00    +0.263 C 
ATOM      2  O   UNL     1      40.547  20.681  19.554  0.00  0.00    -0.357 OA
ENDBRANCH   3   2
ENDBRANCH   4   3
ENDBRANCH   5   4
BRANCH   6   7
ATOM      7  O   UNL     1      45.369  18.326  21.753  0.00  0.00    -0.542 OA
ATOM      8  H   UNL     1      46.242  18.290  21.340  0.00  0.00    +0.389 HD
ENDBRANCH   6   7
BRANCH  10  11
ATOM     11  C   UNL     1      46.481  14.905  20.809  0.00  0.00    +0.469 C 
ATOM     12  O   UNL     1      45.529  14.165  20.880  0.00  0.00    -0.435 OA
ENDBRANCH  10  11
BRANCH  16  17
ATOM     17  C   UNL     1      47.266  19.838  20.640  0.00  0.00    -0.022 C 
ATOM     18  C   UNL     1      48.024  20.630  21.358  0.00  0.00    +0.023 C 
ENDBRANCH  16  17
BRANCH  21  22
ATOM     22  O   UNL     1      44.003  21.309  20.307  0.00  0.00    -0.343 OA
BRANCH  22  23
ATOM     23  C   UNL     1      44.530  22.276  21.085  0.00  0.00    +0.503 C 
ATOM     29  O   UNL     1      44.595  22.120  22.289  0.00  0.00    -0.483 OA
BRANCH  23  24
ATOM     24  C   UNL     1      45.024  23.519  20.478  0.00  0.00    -0.181 C 
ATOM     28  C   UNL     1      45.962  24.235  21.094  0.00  0.00    +0.194 C 
BRANCH  24  25
ATOM     25  C   UNL     1      44.469  23.984  19.156  0.00  0.00    +0.244 C 
BRANCH  25  26
ATOM     26  O   UNL     1      43.069  23.706  19.103  0.00  0.00    -0.571 OA
ATOM     27  H   UNL     1      42.696  23.402  19.943  0.00  0.00    +0.389 HD
ENDBRANCH  25  26
ENDBRANCH  24  25
ENDBRANCH  23  24
ENDBRANCH  22  23
ENDBRANCH  21  22
TORSDOF 11
ENDMDL
MODEL 2
REMARK VINA RESULT:      -5.4      1.458      2.064
REMARK  Name = ZINC95486290
REMARK  12 active torsions:
REMARK  status: ('A' for Active; 'I' for Inactive)
REMARK    1  A    between atoms: C1_1  and  O1_2
REMARK    2  A    between atoms: O1_2  and  C2_3
REMARK    3  A    between atoms: C2_3  and  C3_5
REMARK    4  A    between atoms: C3_5  and  C5_7
REMARK    5  A    between atoms: C6_9  and  O9_34
REMARK    6  A    between atoms: C8_12  and  C20_32
REMARK    7  A    between atoms: C11_18  and  C18_30
REMARK    8  A    between atoms: C13_21  and  O5_23
REMARK    9  A    between atoms: O5_23  and  C14_24
REMARK   10  A    between atoms: C14_24  and  C15_26
REMARK   11  A    between atoms: C15_26  and  C17_28
REMARK   12  A    between atoms: C17_28  and  O7_29
REMARK                            x       y       z     vdW  Elec       q    Type
REMARK                         _______ _______ _______ _____ _____    ______ ____
ROOT
ATOM      5  C   UNL     1      44.052  18.132  20.368  0.00  0.00    +0.026 C 
ATOM      6  C   UNL     1      44.865  17.261  21.330  0.00  0.00    +0.186 C 
ATOM      9  C   UNL     1      44.785  15.798  20.884  0.00  0.00    +0.090 C 
ATOM     10  C   UNL     1      46.185  15.299  20.523  0.00  0.00    -0.030 C 
ATOM     13  C   UNL     1      46.287  15.126  19.029  0.00  0.00    +0.499 C 
ATOM     14  O   UNL     1      47.047  15.965  18.307  0.00  0.00    -0.364 OA
ATOM     15  C   UNL     1      46.377  16.784  17.347  0.00  0.00    +0.248 C 
ATOM     16  C   UNL     1      46.442  18.246  17.790  0.00  0.00    +0.008 C 
ATOM     19  C   UNL     1      45.037  18.733  18.151  0.00  0.00    +0.021 C 
ATOM     20  O   UNL     1      45.685  14.234  18.482  0.00  0.00    -0.469 OA
ATOM     21  C   UNL     1      44.989  19.095  19.638  0.00  0.00    +0.213 C 
ENDROOT
BRANCH   5   4
ATOM      4  C   UNL     1      43.029  18.918  21.147  0.00  0.00    -0.144 C 
ATOM     30  C   UNL     1      43.342  19.421  22.338  0.00  0.00    +0.173 C 
BRANCH   4   3
ATOM      3  C   UNL     1      41.685  19.127  20.591  0.00  0.00    +0.511 C 
ATOM     31  O   UNL     1      40.720  19.161  21.330  0.00  0.00    -0.503 OA
BRANCH   3   2
ATOM      1  C   UNL     1      41.064  20.557  18.808  0.00  0.00    +0.263 C 
ATOM      2  O   UNL     1      41.522  19.281  19.261  0.00  0.00    -0.357 OA
ENDBRANCH   3   2
ENDBRANCH   4   3
ENDBRANCH   5   4
BRANCH   6   7
ATOM      7  O   UNL     1      46.228  17.688  21.321  0.00  0.00    -0.542 OA
ATOM      8  H   UNL     1      46.610  17.765  20.436  0.00  0.00    +0.389 HD
ENDBRANCH   6   7
BRANCH  10  11
ATOM     11  C   UNL     1      46.436  13.976  21.200  0.00  0.00    +0.469 C 
ATOM     12  O   UNL     1      45.660  13.564  22.027  0.00  0.00    -0.435 OA
ENDBRANCH  10  11
BRANCH  16  17
ATOM     17  C   UNL     1      47.341  18.368  18.992  0.00  0.00    -0.022 C 
ATOM     18  C   UNL     1      48.439  19.079  18.921  0.00  0.00    +0.023 C 
ENDBRANCH  16  17
BRANCH  21  22
ATOM     22  O   UNL     1      44.507  20.432  19.787  0.00  0.00    -0.343 OA
BRANCH  22  23
ATOM     23  C   UNL     1      45.417  21.423  19.700  0.00  0.00    +0.503 C 
ATOM     29  O   UNL     1      45.760  21.841  18.611  0.00  0.00    -0.483 OA
BRANCH  23  24
ATOM     24  C   UNL     1      45.995  21.998  20.922  0.00  0.00    -0.181 C 
ATOM     28  C   UNL     1      47.275  21.784  21.218  0.00  0.00    +0.194 C 
BRANCH  24  25
ATOM     25  C   UNL     1      45.140  22.833  21.841  0.00  0.00    +0.244 C 
BRANCH  25  26
ATOM     26  O   UNL     1      43.855  23.030  21.246  0.00  0.00    -0.571 OA
ATOM     27  H   UNL     1      43.885  23.469  20.384  0.00  0.00    +0.389 HD
ENDBRANCH  25  26
ENDBRANCH  24  25
ENDBRANCH  23  24
ENDBRANCH  22  23
ENDBRANCH  21  22
TORSDOF 11
ENDMDL
MODEL 3
REMARK VINA RESULT:      -5.2      1.955      4.629
REMARK  Name = ZINC95486290
REMARK  12 active torsions:
REMARK  status: ('A' for Active; 'I' for Inactive)
REMARK    1  A    between atoms: C1_1  and  O1_2
REMARK    2  A    between atoms: O1_2  and  C2_3
REMARK    3  A    between atoms: C2_3  and  C3_5
REMARK    4  A    between atoms: C3_5  and  C5_7
REMARK    5  A    between atoms: C6_9  and  O9_34
REMARK    6  A    between atoms: C8_12  and  C20_32
REMARK    7  A    between atoms: C11_18  and  C18_30
REMARK    8  A    between atoms: C13_21  and  O5_23
REMARK    9  A    between atoms: O5_23  and  C14_24
REMARK   10  A    between atoms: C14_24  and  C15_26
REMARK   11  A    between atoms: C15_26  and  C17_28
REMARK   12  A    between atoms: C17_28  and  O7_29
REMARK                            x       y       z     vdW  Elec       q    Type
REMARK                         _______ _______ _______ _____ _____    ______ ____
ROOT
ATOM      5  C   UNL     1      46.249  20.722  20.963  0.00  0.00    +0.026 C 
ATOM      6  C   UNL     1      47.210  21.262  19.902  0.00  0.00    +0.186 C 
ATOM      9  C   UNL     1      48.654  21.004  20.343  0.00  0.00    +0.090 C 
ATOM     10  C   UNL     1      49.336  20.077  19.335  0.00  0.00    -0.030 C 
ATOM     13  C   UNL     1      49.534  18.719  19.957  0.00  0.00    +0.499 C 
ATOM     14  O   UNL     1      48.809  17.673  19.529  0.00  0.00    -0.364 OA
ATOM     15  C   UNL     1      47.918  17.072  20.470  0.00  0.00    +0.248 C 
ATOM     16  C   UNL     1      46.472  17.334  20.043  0.00  0.00    +0.008 C 
ATOM     19  C   UNL     1      45.802  18.265  21.057  0.00  0.00    +0.021 C 
ATOM     20  O   UNL     1      50.344  18.570  20.840  0.00  0.00    -0.469 OA
ATOM     21  C   UNL     1      45.423  19.580  20.370  0.00  0.00    +0.213 C 
ENDROOT
BRANCH   5   4
ATOM      4  C   UNL     1      45.328  21.826  21.414  0.00  0.00    -0.144 C 
ATOM     30  C   UNL     1      44.584  21.669  22.505  0.00  0.00    +0.173 C 
BRANCH   4   3
ATOM      3  C   UNL     1      45.251  23.077  20.647  0.00  0.00    +0.511 C 
ATOM     31  O   UNL     1      45.853  24.063  21.029  0.00  0.00    -0.503 OA
BRANCH   3   2
ATOM      1  C   UNL     1      44.431  24.399  18.860  0.00  0.00    +0.263 C 
ATOM      2  O   UNL     1      44.513  23.133  19.520  0.00  0.00    -0.357 OA
ENDBRANCH   3   2
ENDBRANCH   4   3
ENDBRANCH   5   4
BRANCH   6   7
ATOM      7  O   UNL     1      46.967  20.600  18.659  0.00  0.00    -0.542 OA
ATOM      8  H   UNL     1      46.056  20.298  18.546  0.00  0.00    +0.389 HD
ENDBRANCH   6   7
BRANCH  10  11
ATOM     11  C   UNL     1      50.675  20.653  18.950  0.00  0.00    +0.469 C 
ATOM     12  O   UNL     1      50.808  21.214  17.889  0.00  0.00    -0.435 OA
ENDBRANCH  10  11
BRANCH  16  17
ATOM     17  C   UNL     1      46.459  17.980  18.683  0.00  0.00    -0.022 C 
ATOM     18  C   UNL     1      46.116  17.282  17.628  0.00  0.00    +0.023 C 
ENDBRANCH  16  17
BRANCH  21  22
ATOM     22  O   UNL     1      44.033  19.841  20.573  0.00  0.00    -0.343 OA
BRANCH  22  23
ATOM     23  C   UNL     1      43.261  19.934  19.473  0.00  0.00    +0.503 C 
ATOM     29  O   UNL     1      43.773  19.969  18.371  0.00  0.00    -0.483 OA
BRANCH  23  24
ATOM     24  C   UNL     1      41.799  19.995  19.605  0.00  0.00    -0.181 C 
ATOM     28  C   UNL     1      41.174  19.200  20.471  0.00  0.00    +0.194 C 
BRANCH  24  25
ATOM     25  C   UNL     1      41.005  20.959  18.760  0.00  0.00    +0.244 C 
BRANCH  25  26
ATOM     26  O   UNL     1      41.741  22.174  18.607  0.00  0.00    -0.571 OA
ATOM     27  H   UNL     1      41.457  22.883  19.202  0.00  0.00    +0.389 HD
ENDBRANCH  25  26
ENDBRANCH  24  25
ENDBRANCH  23  24
ENDBRANCH  22  23
ENDBRANCH  21  22
TORSDOF 11
ENDMDL
MODEL 4
REMARK VINA RESULT:      -4.7      2.992      6.037
REMARK  Name = ZINC95486290
REMARK  12 active torsions:
REMARK  status: ('A' for Active; 'I' for Inactive)
REMARK    1  A    between atoms: C1_1  and  O1_2
REMARK    2  A    between atoms: O1_2  and  C2_3
REMARK    3  A    between atoms: C2_3  and  C3_5
REMARK    4  A    between atoms: C3_5  and  C5_7
REMARK    5  A    between atoms: C6_9  and  O9_34
REMARK    6  A    between atoms: C8_12  and  C20_32
REMARK    7  A    between atoms: C11_18  and  C18_30
REMARK    8  A    between atoms: C13_21  and  O5_23
REMARK    9  A    between atoms: O5_23  and  C14_24
REMARK   10  A    between atoms: C14_24  and  C15_26
REMARK   11  A    between atoms: C15_26  and  C17_28
REMARK   12  A    between atoms: C17_28  and  O7_29
REMARK                            x       y       z     vdW  Elec       q    Type
REMARK                         _______ _______ _______ _____ _____    ______ ____
ROOT
ATOM      5  C   UNL     1      48.277  20.596  20.017  0.00  0.00    +0.026 C 
ATOM      6  C   UNL     1      48.820  20.294  18.618  0.00  0.00    +0.186 C 
ATOM      9  C   UNL     1      50.110  21.086  18.390  0.00  0.00    +0.090 C 
ATOM     10  C   UNL     1      51.273  20.116  18.174  0.00  0.00    -0.030 C 
ATOM     13  C   UNL     1      52.176  20.139  19.380  0.00  0.00    +0.499 C 
ATOM     14  O   UNL     1      52.224  19.080  20.203  0.00  0.00    -0.364 OA
ATOM     15  C   UNL     1      51.782  19.282  21.547  0.00  0.00    +0.248 C 
ATOM     16  C   UNL     1      50.487  18.503  21.781  0.00  0.00    +0.008 C 
ATOM     19  C   UNL     1      49.332  19.485  21.992  0.00  0.00    +0.021 C 
ATOM     20  O   UNL     1      52.858  21.110  19.605  0.00  0.00    -0.469 OA
ATOM     21  C   UNL     1      48.311  19.322  20.863  0.00  0.00    +0.213 C 
ENDROOT
BRANCH   5   4
ATOM      4  C   UNL     1      46.858  21.090  19.909  0.00  0.00    -0.144 C 
ATOM     30  C   UNL     1      46.120  20.766  18.850  0.00  0.00    +0.173 C 
BRANCH   4   3
ATOM      3  C   UNL     1      46.290  21.931  20.971  0.00  0.00    +0.511 C 
ATOM     31  O   UNL     1      47.006  22.692  21.593  0.00  0.00    -0.503 OA
BRANCH   3   2
ATOM      1  C   UNL     1      44.614  21.262  22.505  0.00  0.00    +0.263 C 
ATOM      2  O   UNL     1      44.974  21.858  21.257  0.00  0.00    -0.357 OA
ENDBRANCH   3   2
ENDBRANCH   4   3
ENDBRANCH   5   4
BRANCH   6   7
ATOM      7  O   UNL     1      49.093  18.896  18.505  0.00  0.00    -0.542 OA
ATOM      8  H   UNL     1      48.656  18.470  17.756  0.00  0.00    +0.389 HD
ENDBRANCH   6   7
BRANCH  10  11
ATOM     11  C   UNL     1      52.053  20.530  16.953  0.00  0.00    +0.469 C 
ATOM     12  O   UNL     1      51.630  21.404  16.235  0.00  0.00    -0.435 OA
ENDBRANCH  10  11
BRANCH  16  17
ATOM     17  C   UNL     1      50.198  17.637  20.583  0.00  0.00    -0.022 C 
ATOM     18  C   UNL     1      50.263  16.332  20.685  0.00  0.00    +0.023 C 
ENDBRANCH  16  17
BRANCH  21  22
ATOM     22  O   UNL     1      47.017  19.086  21.421  0.00  0.00    -0.343 OA
BRANCH  22  23
ATOM     23  C   UNL     1      46.515  17.842  21.296  0.00  0.00    +0.503 C 
ATOM     29  O   UNL     1      46.960  16.935  21.974  0.00  0.00    -0.483 OA
BRANCH  23  24
ATOM     24  C   UNL     1      45.430  17.579  20.341  0.00  0.00    -0.181 C 
ATOM     28  C   UNL     1      44.194  17.996  20.605  0.00  0.00    +0.194 C 
BRANCH  24  25
ATOM     25  C   UNL     1      45.716  16.839  19.060  0.00  0.00    +0.244 C 
BRANCH  25  26
ATOM     26  O   UNL     1      47.129  16.691  18.901  0.00  0.00    -0.571 OA
ATOM     27  H   UNL     1      47.410  15.785  18.710  0.00  0.00    +0.389 HD
ENDBRANCH  25  26
ENDBRANCH  24  25
ENDBRANCH  23  24
ENDBRANCH  22  23
ENDBRANCH  21  22
TORSDOF 11
ENDMDL
MODEL 5
REMARK VINA RESULT:      -4.6      2.331      7.202
REMARK  Name = ZINC95486290
REMARK  12 active torsions:
REMARK  status: ('A' for Active; 'I' for Inactive)
REMARK    1  A    between atoms: C1_1  and  O1_2
REMARK    2  A    between atoms: O1_2  and  C2_3
REMARK    3  A    between atoms: C2_3  and  C3_5
REMARK    4  A    between atoms: C3_5  and  C5_7
REMARK    5  A    between atoms: C6_9  and  O9_34
REMARK    6  A    between atoms: C8_12  and  C20_32
REMARK    7  A    between atoms: C11_18  and  C18_30
REMARK    8  A    between atoms: C13_21  and  O5_23
REMARK    9  A    between atoms: O5_23  and  C14_24
REMARK   10  A    between atoms: C14_24  and  C15_26
REMARK   11  A    between atoms: C15_26  and  C17_28
REMARK   12  A    between atoms: C17_28  and  O7_29
REMARK                            x       y       z     vdW  Elec       q    Type
REMARK                         _______ _______ _______ _____ _____    ______ ____
ROOT
ATOM      5  C   UNL     1      48.411  19.168  19.178  0.00  0.00    +0.026 C 
ATOM      6  C   UNL     1      48.331  19.680  20.618  0.00  0.00    +0.186 C 
ATOM      9  C   UNL     1      47.863  21.137  20.617  0.00  0.00    +0.090 C 
ATOM     10  C   UNL     1      46.528  21.245  21.355  0.00  0.00    -0.030 C 
ATOM     13  C   UNL     1      45.426  21.515  20.362  0.00  0.00    +0.499 C 
ATOM     14  O   UNL     1      44.520  20.561  20.090  0.00  0.00    -0.364 OA
ATOM     15  C   UNL     1      44.489  20.059  18.753  0.00  0.00    +0.248 C 
ATOM     16  C   UNL     1      44.966  18.605  18.744  0.00  0.00    +0.008 C 
ATOM     19  C   UNL     1      46.303  18.512  18.006  0.00  0.00    +0.021 C 
ATOM     20  O   UNL     1      45.357  22.587  19.813  0.00  0.00    -0.469 OA
ATOM     21  C   UNL     1      47.391  18.046  18.978  0.00  0.00    +0.213 C 
ENDROOT
BRANCH   5   4
ATOM      4  C   UNL     1      49.796  18.642  18.909  0.00  0.00    -0.144 C 
ATOM     30  C   UNL     1      50.432  17.936  19.841  0.00  0.00    +0.173 C 
BRANCH   4   3
ATOM      3  C   UNL     1      50.446  18.909  17.619  0.00  0.00    +0.511 C 
ATOM     31  O   UNL     1      50.495  18.039  16.770  0.00  0.00    -0.503 OA
BRANCH   3   2
ATOM      1  C   UNL     1      52.366  20.293  17.721  0.00  0.00    +0.263 C 
ATOM      2  O   UNL     1      50.990  20.119  17.375  0.00  0.00    -0.357 OA
ENDBRANCH   3   2
ENDBRANCH   4   3
ENDBRANCH   5   4
BRANCH   6   7
ATOM      7  O   UNL     1      47.401  18.883  21.355  0.00  0.00    -0.542 OA
ATOM      8  H   UNL     1      46.798  19.395  21.911  0.00  0.00    +0.389 HD
ENDBRANCH   6   7
BRANCH  10  11
ATOM     11  C   UNL     1      46.594  22.375  22.350  0.00  0.00    +0.469 C 
ATOM     12  O   UNL     1      47.580  23.070  22.410  0.00  0.00    -0.435 OA
ENDBRANCH  10  11
BRANCH  16  17
ATOM     17  C   UNL     1      45.138  18.124  20.160  0.00  0.00    -0.022 C 
ATOM     18  C   UNL     1      44.408  17.134  20.611  0.00  0.00    +0.023 C 
ENDBRANCH  16  17
BRANCH  21  22
ATOM     22  O   UNL     1      48.047  16.896  18.442  0.00  0.00    -0.343 OA
BRANCH  22  23
ATOM     23  C   UNL     1      47.660  15.695  18.917  0.00  0.00    +0.503 C 
ATOM     29  O   UNL     1      48.049  15.316  20.005  0.00  0.00    -0.483 OA
BRANCH  23  24
ATOM     24  C   UNL     1      46.770  14.841  18.118  0.00  0.00    -0.181 C 
ATOM     28  C   UNL     1      45.734  14.235  18.694  0.00  0.00    +0.194 C 
BRANCH  24  25
ATOM     25  C   UNL     1      47.028  14.653  16.645  0.00  0.00    +0.244 C 
BRANCH  25  26
ATOM     26  O   UNL     1      46.649  15.836  15.940  0.00  0.00    -0.571 OA
ATOM     27  H   UNL     1      47.378  16.264  15.470  0.00  0.00    +0.389 HD
ENDBRANCH  25  26
ENDBRANCH  24  25
ENDBRANCH  23  24
ENDBRANCH  22  23
ENDBRANCH  21  22
TORSDOF 11
ENDMDL
MODEL 6
REMARK VINA RESULT:      -4.5      2.267      6.271
REMARK  Name = ZINC95486290
REMARK  12 active torsions:
REMARK  status: ('A' for Active; 'I' for Inactive)
REMARK    1  A    between atoms: C1_1  and  O1_2
REMARK    2  A    between atoms: O1_2  and  C2_3
REMARK    3  A    between atoms: C2_3  and  C3_5
REMARK    4  A    between atoms: C3_5  and  C5_7
REMARK    5  A    between atoms: C6_9  and  O9_34
REMARK    6  A    between atoms: C8_12  and  C20_32
REMARK    7  A    between atoms: C11_18  and  C18_30
REMARK    8  A    between atoms: C13_21  and  O5_23
REMARK    9  A    between atoms: O5_23  and  C14_24
REMARK   10  A    between atoms: C14_24  and  C15_26
REMARK   11  A    between atoms: C15_26  and  C17_28
REMARK   12  A    between atoms: C17_28  and  O7_29
REMARK                            x       y       z     vdW  Elec       q    Type
REMARK                         _______ _______ _______ _____ _____    ______ ____
ROOT
ATOM      5  C   UNL     1      46.368  17.781  18.787  0.00  0.00    +0.026 C 
ATOM      6  C   UNL     1      45.665  19.019  18.226  0.00  0.00    +0.186 C 
ATOM      9  C   UNL     1      44.251  19.110  18.804  0.00  0.00    +0.090 C 
ATOM     10  C   UNL     1      44.117  20.395  19.624  0.00  0.00    -0.030 C 
ATOM     13  C   UNL     1      44.052  20.051  21.090  0.00  0.00    +0.499 C 
ATOM     14  O   UNL     1      45.084  20.350  21.895  0.00  0.00    -0.364 OA
ATOM     15  C   UNL     1      45.769  19.254  22.505  0.00  0.00    +0.248 C 
ATOM     16  C   UNL     1      47.180  19.149  21.924  0.00  0.00    +0.008 C 
ATOM     19  C   UNL     1      47.300  17.862  21.104  0.00  0.00    +0.021 C 
ATOM     20  O   UNL     1      43.072  19.507  21.540  0.00  0.00    -0.469 OA
ATOM     21  C   UNL     1      47.563  18.214  19.638  0.00  0.00    +0.213 C 
ENDROOT
BRANCH   5   4
ATOM      4  C   UNL     1      46.847  16.917  17.649  0.00  0.00    -0.144 C 
ATOM     30  C   UNL     1      47.264  17.479  16.517  0.00  0.00    +0.173 C 
BRANCH   4   3
ATOM      3  C   UNL     1      46.852  15.455  17.789  0.00  0.00    +0.511 C 
ATOM     31  O   UNL     1      45.939  14.895  18.366  0.00  0.00    -0.503 OA
BRANCH   3   2
ATOM      1  C   UNL     1      47.537  13.749  16.294  0.00  0.00    +0.263 C 
ATOM      2  O   UNL     1      47.869  14.732  17.277  0.00  0.00    -0.357 OA
ENDBRANCH   3   2
ENDBRANCH   4   3
ENDBRANCH   5   4
BRANCH   6   7
ATOM      7  O   UNL     1      46.403  20.189  18.586  0.00  0.00    -0.542 OA
ATOM      8  H   UNL     1      46.862  20.118  19.434  0.00  0.00    +0.389 HD
ENDBRANCH   6   7
BRANCH  10  11
ATOM     11  C   UNL     1      42.858  21.118  19.221  0.00  0.00    +0.469 C 
ATOM     12  O   UNL     1      42.072  20.590  18.472  0.00  0.00    -0.435 OA
ENDBRANCH  10  11
BRANCH  16  17
ATOM     17  C   UNL     1      47.449  20.336  21.037  0.00  0.00    -0.022 C 
ATOM     18  C   UNL     1      48.319  21.245  21.402  0.00  0.00    +0.023 C 
ENDBRANCH  16  17
BRANCH  21  22
ATOM     22  O   UNL     1      48.738  17.536  19.188  0.00  0.00    -0.343 OA
BRANCH  22  23
ATOM     23  C   UNL     1      49.903  18.207  19.280  0.00  0.00    +0.503 C 
ATOM     29  O   UNL     1      50.609  18.070  20.261  0.00  0.00    -0.483 OA
BRANCH  23  24
ATOM     24  C   UNL     1      50.321  19.106  18.196  0.00  0.00    -0.181 C 
ATOM     28  C   UNL     1      50.220  20.424  18.347  0.00  0.00    +0.194 C 
BRANCH  24  25
ATOM     25  C   UNL     1      50.867  18.535  16.912  0.00  0.00    +0.244 C 
BRANCH  25  26
ATOM     26  O   UNL     1      52.289  18.439  17.000  0.00  0.00    -0.571 OA
ATOM     27  H   UNL     1      52.600  17.808  17.664  0.00  0.00    +0.389 HD
ENDBRANCH  25  26
ENDBRANCH  24  25
ENDBRANCH  23  24
ENDBRANCH  22  23
ENDBRANCH  21  22
TORSDOF 11
ENDMDL
MODEL 7
REMARK VINA RESULT:      -4.5      3.080      7.467
REMARK  Name = ZINC95486290
REMARK  12 active torsions:
REMARK  status: ('A' for Active; 'I' for Inactive)
REMARK    1  A    between atoms: C1_1  and  O1_2
REMARK    2  A    between atoms: O1_2  and  C2_3
REMARK    3  A    between atoms: C2_3  and  C3_5
REMARK    4  A    between atoms: C3_5  and  C5_7
REMARK    5  A    between atoms: C6_9  and  O9_34
REMARK    6  A    between atoms: C8_12  and  C20_32
REMARK    7  A    between atoms: C11_18  and  C18_30
REMARK    8  A    between atoms: C13_21  and  O5_23
REMARK    9  A    between atoms: O5_23  and  C14_24
REMARK   10  A    between atoms: C14_24  and  C15_26
REMARK   11  A    between atoms: C15_26  and  C17_28
REMARK   12  A    between atoms: C17_28  and  O7_29
REMARK                            x       y       z     vdW  Elec       q    Type
REMARK                         _______ _______ _______ _____ _____    ______ ____
ROOT
ATOM      5  C   UNL     1      49.147  20.147  19.589  0.00  0.00    +0.026 C 
ATOM      6  C   UNL     1      48.302  20.506  20.815  0.00  0.00    +0.186 C 
ATOM      9  C   UNL     1      47.050  21.263  20.367  0.00  0.00    +0.090 C 
ATOM     10  C   UNL     1      45.805  20.458  20.746  0.00  0.00    -0.030 C 
ATOM     13  C   UNL     1      45.179  19.887  19.499  0.00  0.00    +0.499 C 
ATOM     14  O   UNL     1      45.234  18.566  19.265  0.00  0.00    -0.364 OA
ATOM     15  C   UNL     1      45.962  18.142  18.111  0.00  0.00    +0.248 C 
ATOM     16  C   UNL     1      47.222  17.393  18.549  0.00  0.00    +0.008 C 
ATOM     19  C   UNL     1      48.458  18.210  18.169  0.00  0.00    +0.021 C 
ATOM     20  O   UNL     1      44.627  20.617  18.711  0.00  0.00    -0.469 OA
ATOM     21  C   UNL     1      49.206  18.626  19.438  0.00  0.00    +0.213 C 
ENDROOT
BRANCH   5   4
ATOM      4  C   UNL     1      50.541  20.689  19.765  0.00  0.00    -0.144 C 
ATOM     30  C   UNL     1      50.998  20.967  20.984  0.00  0.00    +0.173 C 
BRANCH   4   3
ATOM      3  C   UNL     1      51.396  20.913  18.591  0.00  0.00    +0.511 C 
ATOM     31  O   UNL     1      52.595  20.726  18.668  0.00  0.00    -0.503 OA
BRANCH   3   2
ATOM      1  C   UNL     1      51.619  21.117  16.242  0.00  0.00    +0.263 C 
ATOM      2  O   UNL     1      50.851  21.326  17.429  0.00  0.00    -0.357 OA
ENDBRANCH   3   2
ENDBRANCH   4   3
ENDBRANCH   5   4
BRANCH   6   7
ATOM      7  O   UNL     1      47.918  19.309  21.494  0.00  0.00    -0.542 OA
ATOM      8  H   UNL     1      47.547  19.458  22.375  0.00  0.00    +0.389 HD
ENDBRANCH   6   7
BRANCH  10  11
ATOM     11  C   UNL     1      44.815  21.360  21.437  0.00  0.00    +0.469 C 
ATOM     12  O   UNL     1      45.012  22.551  21.482  0.00  0.00    -0.435 OA
ENDBRANCH  10  11
BRANCH  16  17
ATOM     17  C   UNL     1      47.193  17.190  20.041  0.00  0.00    -0.022 C 
ATOM     18  C   UNL     1      47.140  15.979  20.538  0.00  0.00    +0.023 C 
ENDBRANCH  16  17
BRANCH  21  22
ATOM     22  O   UNL     1      50.569  18.209  19.347  0.00  0.00    -0.343 OA
BRANCH  22  23
ATOM     23  C   UNL     1      50.829  16.910  19.596  0.00  0.00    +0.503 C 
ATOM     29  O   UNL     1      50.744  16.478  20.729  0.00  0.00    -0.483 OA
BRANCH  23  24
ATOM     24  C   UNL     1      51.218  16.016  18.496  0.00  0.00    -0.181 C 
ATOM     28  C   UNL     1      51.075  14.699  18.627  0.00  0.00    +0.194 C 
BRANCH  24  25
ATOM     25  C   UNL     1      51.777  16.589  17.220  0.00  0.00    +0.244 C 
BRANCH  25  26
ATOM     26  O   UNL     1      52.508  17.781  17.514  0.00  0.00    -0.571 OA
ATOM     27  H   UNL     1      52.064  18.594  17.233  0.00  0.00    +0.389 HD
ENDBRANCH  25  26
ENDBRANCH  24  25
ENDBRANCH  23  24
ENDBRANCH  22  23
ENDBRANCH  21  22
TORSDOF 11
ENDMDL
MODEL 8
REMARK VINA RESULT:      -4.5      3.055      4.580
REMARK  Name = ZINC95486290
REMARK  12 active torsions:
REMARK  status: ('A' for Active; 'I' for Inactive)
REMARK    1  A    between atoms: C1_1  and  O1_2
REMARK    2  A    between atoms: O1_2  and  C2_3
REMARK    3  A    between atoms: C2_3  and  C3_5
REMARK    4  A    between atoms: C3_5  and  C5_7
REMARK    5  A    between atoms: C6_9  and  O9_34
REMARK    6  A    between atoms: C8_12  and  C20_32
REMARK    7  A    between atoms: C11_18  and  C18_30
REMARK    8  A    between atoms: C13_21  and  O5_23
REMARK    9  A    between atoms: O5_23  and  C14_24
REMARK   10  A    between atoms: C14_24  and  C15_26
REMARK   11  A    between atoms: C15_26  and  C17_28
REMARK   12  A    between atoms: C17_28  and  O7_29
REMARK                            x       y       z     vdW  Elec       q    Type
REMARK                         _______ _______ _______ _____ _____    ______ ____
ROOT
ATOM      5  C   UNL     1      48.231  18.216  19.395  0.00  0.00    +0.026 C 
ATOM      6  C   UNL     1      49.374  17.303  19.844  0.00  0.00    +0.186 C 
ATOM      9  C   UNL     1      50.202  16.886  18.626  0.00  0.00    +0.090 C 
ATOM     10  C   UNL     1      51.632  17.409  18.779  0.00  0.00    -0.030 C 
ATOM     13  C   UNL     1      51.861  18.535  17.803  0.00  0.00    +0.499 C 
ATOM     14  O   UNL     1      51.986  19.795  18.250  0.00  0.00    -0.364 OA
ATOM     15  C   UNL     1      50.988  20.731  17.839  0.00  0.00    +0.248 C 
ATOM     16  C   UNL     1      50.148  21.144  19.049  0.00  0.00    +0.008 C 
ATOM     19  C   UNL     1      48.723  20.613  18.886  0.00  0.00    +0.021 C 
ATOM     20  O   UNL     1      51.933  18.304  16.620  0.00  0.00    -0.469 OA
ATOM     21  C   UNL     1      48.422  19.607  20.001  0.00  0.00    +0.213 C 
ENDROOT
BRANCH   5   4
ATOM      4  C   UNL     1      46.918  17.641  19.861  0.00  0.00    -0.144 C 
ATOM     30  C   UNL     1      46.873  16.888  20.957  0.00  0.00    +0.173 C 
BRANCH   4   3
ATOM      3  C   UNL     1      45.688  17.911  19.103  0.00  0.00    +0.511 C 
ATOM     31  O   UNL     1      45.749  18.457  18.018  0.00  0.00    -0.503 OA
BRANCH   3   2
ATOM      1  C   UNL     1      43.664  18.604  20.120  0.00  0.00    +0.263 C 
ATOM      2  O   UNL     1      44.491  17.555  19.612  0.00  0.00    -0.357 OA
ENDBRANCH   3   2
ENDBRANCH   4   3
ENDBRANCH   5   4
BRANCH   6   7
ATOM      7  O   UNL     1      50.208  18.004  20.769  0.00  0.00    -0.542 OA
ATOM      8  H   UNL     1      50.155  17.672  21.676  0.00  0.00    +0.389 HD
ENDBRANCH   6   7
BRANCH  10  11
ATOM     11  C   UNL     1      52.607  16.295  18.498  0.00  0.00    +0.469 C 
ATOM     12  O   UNL     1      53.701  16.307  19.009  0.00  0.00    -0.435 OA
ENDBRANCH  10  11
BRANCH  16  17
ATOM     17  C   UNL     1      50.757  20.574  20.303  0.00  0.00    -0.022 C 
ATOM     18  C   UNL     1      51.417  21.351  21.125  0.00  0.00    +0.023 C 
ENDBRANCH  16  17
BRANCH  21  22
ATOM     22  O   UNL     1      47.230  19.997  20.685  0.00  0.00    -0.343 OA
BRANCH  22  23
ATOM     23  C   UNL     1      47.145  21.282  21.082  0.00  0.00    +0.503 C 
ATOM     29  O   UNL     1      47.970  21.738  21.849  0.00  0.00    -0.483 OA
BRANCH  23  24
ATOM     24  C   UNL     1      46.053  22.133  20.589  0.00  0.00    -0.181 C 
ATOM     28  C   UNL     1      45.376  21.782  19.497  0.00  0.00    +0.194 C 
BRANCH  24  25
ATOM     25  C   UNL     1      45.698  23.403  21.319  0.00  0.00    +0.244 C 
BRANCH  25  26
ATOM     26  O   UNL     1      44.382  23.286  21.865  0.00  0.00    -0.571 OA
ATOM     27  H   UNL     1      43.807  22.680  21.377  0.00  0.00    +0.389 HD
ENDBRANCH  25  26
ENDBRANCH  24  25
ENDBRANCH  23  24
ENDBRANCH  22  23
ENDBRANCH  21  22
TORSDOF 11
ENDMDL
MODEL 9
REMARK VINA RESULT:      -4.4      2.617      5.038
REMARK  Name = ZINC95486290
REMARK  12 active torsions:
REMARK  status: ('A' for Active; 'I' for Inactive)
REMARK    1  A    between atoms: C1_1  and  O1_2
REMARK    2  A    between atoms: O1_2  and  C2_3
REMARK    3  A    between atoms: C2_3  and  C3_5
REMARK    4  A    between atoms: C3_5  and  C5_7
REMARK    5  A    between atoms: C6_9  and  O9_34
REMARK    6  A    between atoms: C8_12  and  C20_32
REMARK    7  A    between atoms: C11_18  and  C18_30
REMARK    8  A    between atoms: C13_21  and  O5_23
REMARK    9  A    between atoms: O5_23  and  C14_24
REMARK   10  A    between atoms: C14_24  and  C15_26
REMARK   11  A    between atoms: C15_26  and  C17_28
REMARK   12  A    between atoms: C17_28  and  O7_29
REMARK                            x       y       z     vdW  Elec       q    Type
REMARK                         _______ _______ _______ _____ _____    ______ ____
ROOT
ATOM      5  C   UNL     1      46.533  17.708  19.262  0.00  0.00    +0.026 C 
ATOM      6  C   UNL     1      46.448  16.797  20.489  0.00  0.00    +0.186 C 
ATOM      9  C   UNL     1      45.421  15.692  20.232  0.00  0.00    +0.090 C 
ATOM     10  C   UNL     1      46.117  14.330  20.269  0.00  0.00    -0.030 C 
ATOM     13  C   UNL     1      46.188  13.765  18.873  0.00  0.00    +0.499 C 
ATOM     14  O   UNL     1      47.369  13.688  18.240  0.00  0.00    -0.364 OA
ATOM     15  C   UNL     1      47.522  14.469  17.053  0.00  0.00    +0.248 C 
ATOM     16  C   UNL     1      48.539  15.583  17.304  0.00  0.00    +0.008 C 
ATOM     19  C   UNL     1      47.830  16.939  17.269  0.00  0.00    +0.021 C 
ATOM     20  O   UNL     1      45.183  13.382  18.325  0.00  0.00    -0.469 OA
ATOM     21  C   UNL     1      47.929  17.603  18.645  0.00  0.00    +0.213 C 
ENDROOT
BRANCH   5   4
ATOM      4  C   UNL     1      46.274  19.133  19.677  0.00  0.00    -0.144 C 
ATOM     30  C   UNL     1      46.685  19.566  20.866  0.00  0.00    +0.173 C 
BRANCH   4   3
ATOM      3  C   UNL     1      45.564  20.045  18.769  0.00  0.00    +0.511 C 
ATOM     31  O   UNL     1      46.046  21.128  18.495  0.00  0.00    -0.503 OA
BRANCH   3   2
ATOM      1  C   UNL     1      43.206  20.016  18.986  0.00  0.00    +0.263 C 
ATOM      2  O   UNL     1      44.378  19.682  18.240  0.00  0.00    -0.357 OA
ENDBRANCH   3   2
ENDBRANCH   4   3
ENDBRANCH   5   4
BRANCH   6   7
ATOM      7  O   UNL     1      47.727  16.210  20.735  0.00  0.00    -0.542 OA
ATOM      8  H   UNL     1      47.722  15.533  21.426  0.00  0.00    +0.389 HD
ENDBRANCH   6   7
BRANCH  10  11
ATOM     11  C   UNL     1      45.337  13.390  21.151  0.00  0.00    +0.469 C 
ATOM     12  O   UNL     1      45.018  13.733  22.265  0.00  0.00    -0.435 OA
ENDBRANCH  10  11
BRANCH  16  17
ATOM     17  C   UNL     1      49.179  15.386  18.653  0.00  0.00    -0.022 C 
ATOM     18  C   UNL     1      50.469  15.178  18.743  0.00  0.00    +0.023 C 
ENDBRANCH  16  17
BRANCH  21  22
ATOM     22  O   UNL     1      48.487  18.910  18.504  0.00  0.00    -0.343 OA
BRANCH  22  23
ATOM     23  C   UNL     1      49.797  19.050  18.790  0.00  0.00    +0.503 C 
ATOM     29  O   UNL     1      50.208  18.787  19.903  0.00  0.00    -0.483 OA
BRANCH  23  24
ATOM     24  C   UNL     1      50.729  19.521  17.756  0.00  0.00    -0.181 C 
ATOM     28  C   UNL     1      51.262  18.657  16.895  0.00  0.00    +0.194 C 
BRANCH  24  25
ATOM     25  C   UNL     1      51.080  20.984  17.668  0.00  0.00    +0.244 C 
BRANCH  25  26
ATOM     26  O   UNL     1      52.470  21.158  17.949  0.00  0.00    -0.571 OA
ATOM     27  H   UNL     1      53.009  20.376  17.765  0.00  0.00    +0.389 HD
ENDBRANCH  25  26
ENDBRANCH  24  25
ENDBRANCH  23  24
ENDBRANCH  22  23
ENDBRANCH  21  22
TORSDOF 11
ENDMDL
