MODEL 1
REMARK VINA RESULT:      -5.1      0.000      0.000
REMARK  Name = ZINC95486292
REMARK  5 active torsions:
REMARK  status: ('A' for Active; 'I' for Inactive)
REMARK    1  A    between atoms: C7_10  and  C14_20
REMARK    2  A    between atoms: C11_14  and  C13_18
REMARK    3  A    between atoms: C12_15  and  O1_17
REMARK    4  A    between atoms: C13_18  and  O2_19
REMARK    5  A    between atoms: C14_20  and  O3_21
REMARK                            x       y       z     vdW  Elec       q    Type
REMARK                         _______ _______ _______ _____ _____    ______ ____
ROOT
ATOM      1  C   UNL     1      40.658  19.389  20.924  0.00  0.00    +0.189 C 
ATOM      2  C   UNL     1      41.606  19.603  20.014  0.00  0.00    -0.223 C 
ATOM      3  C   UNL     1      43.105  19.556  20.203  0.00  0.00    -0.010 C 
ATOM      4  C   UNL     1      43.553  20.479  19.034  0.00  0.00    +0.175 C 
ATOM      5  O   UNL     1      42.660  20.078  17.995  0.00  0.00    -0.328 OA
ATOM      6  C   UNL     1      45.029  20.225  18.786  0.00  0.00    +0.066 C 
ATOM      7  C   UNL     1      45.700  20.006  20.152  0.00  0.00    +0.072 C 
ATOM      8  C   UNL     1      47.136  20.453  20.071  0.00  0.00    -0.145 C 
ATOM     12  C   UNL     1      47.783  20.834  21.167  0.00  0.00    +0.039 C 
ATOM     13  C   UNL     1      47.091  20.808  22.467  0.00  0.00    -0.022 C 
ATOM     14  C   UNL     1      45.765  20.802  22.505  0.00  0.00    +0.022 C 
ATOM     15  C   UNL     1      44.970  20.814  21.227  0.00  0.00    -0.015 C 
ATOM     19  C   UNL     1      43.597  20.167  21.504  0.00  0.00    +0.218 C 
ATOM     22  C   UNL     1      41.435  19.936  18.577  0.00  0.00    +0.510 C 
ATOM     23  O   UNL     1      40.368  20.064  18.008  0.00  0.00    -0.441 OA
ENDROOT
BRANCH  19  20
ATOM     20  O   UNL     1      43.700  19.153  22.505  0.00  0.00    -0.551 OA
ATOM     21  H   UNL     1      43.490  19.459  23.398  0.00  0.00    +0.378 HD
ENDBRANCH  19  20
BRANCH   8   9
ATOM      9  C   UNL     1      47.842  20.466  18.740  0.00  0.00    +0.234 C 
BRANCH   9  10
ATOM     10  O   UNL     1      49.224  20.770  18.937  0.00  0.00    -0.571 OA
ATOM     11  H   UNL     1      49.608  21.326  18.245  0.00  0.00    +0.385 HD
ENDBRANCH   9  10
ENDBRANCH   8   9
BRANCH  15  16
ATOM     16  C   UNL     1      44.795  22.257  20.747  0.00  0.00    +0.198 C 
BRANCH  16  17
ATOM     17  O   UNL     1      44.057  22.997  21.722  0.00  0.00    -0.567 OA
ATOM     18  H   UNL     1      44.500  23.068  22.579  0.00  0.00    +0.384 HD
ENDBRANCH  16  17
ENDBRANCH  15  16
TORSDOF 5
ENDMDL
MODEL 2
REMARK VINA RESULT:      -5.0      1.644      2.828
REMARK  Name = ZINC95486292
REMARK  5 active torsions:
REMARK  status: ('A' for Active; 'I' for Inactive)
REMARK    1  A    between atoms: C7_10  and  C14_20
REMARK    2  A    between atoms: C11_14  and  C13_18
REMARK    3  A    between atoms: C12_15  and  O1_17
REMARK    4  A    between atoms: C13_18  and  O2_19
REMARK    5  A    between atoms: C14_20  and  O3_21
REMARK                            x       y       z     vdW  Elec       q    Type
REMARK                         _______ _______ _______ _____ _____    ______ ____
ROOT
ATOM      1  C   UNL     1      41.006  22.436  18.237  0.00  0.00    +0.189 C 
ATOM      2  C   UNL     1      41.426  21.289  18.766  0.00  0.00    -0.223 C 
ATOM      3  C   UNL     1      42.477  21.086  19.834  0.00  0.00    -0.010 C 
ATOM      4  C   UNL     1      42.909  19.627  19.513  0.00  0.00    +0.175 C 
ATOM      5  O   UNL     1      41.654  19.017  19.212  0.00  0.00    -0.328 OA
ATOM      6  C   UNL     1      43.644  19.087  20.726  0.00  0.00    +0.066 C 
ATOM      7  C   UNL     1      44.484  20.234  21.311  0.00  0.00    +0.072 C 
ATOM      8  C   UNL     1      45.699  19.657  21.988  0.00  0.00    -0.145 C 
ATOM     12  C   UNL     1      46.799  20.390  22.131  0.00  0.00    +0.039 C 
ATOM     13  C   UNL     1      46.821  21.775  21.633  0.00  0.00    -0.022 C 
ATOM     14  C   UNL     1      45.941  22.158  20.716  0.00  0.00    +0.022 C 
ATOM     15  C   UNL     1      44.921  21.183  20.193  0.00  0.00    -0.015 C 
ATOM     19  C   UNL     1      43.696  21.982  19.699  0.00  0.00    +0.218 C 
ATOM     22  C   UNL     1      40.966  19.913  18.448  0.00  0.00    +0.510 C 
ATOM     23  O   UNL     1      40.111  19.630  17.632  0.00  0.00    -0.441 OA
ENDROOT
BRANCH  19  20
ATOM     20  O   UNL     1      43.512  23.169  20.472  0.00  0.00    -0.551 OA
ATOM     21  H   UNL     1      43.701  23.058  21.414  0.00  0.00    +0.378 HD
ENDBRANCH  19  20
BRANCH   8   9
ATOM      9  C   UNL     1      45.668  18.242  22.505  0.00  0.00    +0.234 C 
BRANCH   9  10
ATOM     10  O   UNL     1      46.693  17.478  21.867  0.00  0.00    -0.571 OA
ATOM     11  H   UNL     1      46.367  16.705  21.389  0.00  0.00    +0.385 HD
ENDBRANCH   9  10
ENDBRANCH   8   9
BRANCH  15  16
ATOM     16  C   UNL     1      45.529  20.372  19.046  0.00  0.00    +0.198 C 
BRANCH  16  17
ATOM     17  O   UNL     1      46.518  21.159  18.379  0.00  0.00    -0.567 OA
ATOM     18  H   UNL     1      47.050  20.663  17.742  0.00  0.00    +0.384 HD
ENDBRANCH  16  17
ENDBRANCH  15  16
TORSDOF 5
ENDMDL
MODEL 3
REMARK VINA RESULT:      -4.9      2.483      4.580
REMARK  Name = ZINC95486292
REMARK  5 active torsions:
REMARK  status: ('A' for Active; 'I' for Inactive)
REMARK    1  A    between atoms: C7_10  and  C14_20
REMARK    2  A    between atoms: C11_14  and  C13_18
REMARK    3  A    between atoms: C12_15  and  O1_17
REMARK    4  A    between atoms: C13_18  and  O2_19
REMARK    5  A    between atoms: C14_20  and  O3_21
REMARK                            x       y       z     vdW  Elec       q    Type
REMARK                         _______ _______ _______ _____ _____    ______ ____
ROOT
ATOM      1  C   UNL     1      48.716  17.610  18.593  0.00  0.00    +0.189 C 
ATOM      2  C   UNL     1      47.484  18.100  18.473  0.00  0.00    -0.223 C 
ATOM      3  C   UNL     1      47.008  19.506  18.765  0.00  0.00    -0.010 C 
ATOM      4  C   UNL     1      45.503  19.229  19.042  0.00  0.00    +0.175 C 
ATOM      5  O   UNL     1      45.204  18.256  18.040  0.00  0.00    -0.328 OA
ATOM      6  C   UNL     1      44.764  20.550  18.936  0.00  0.00    +0.066 C 
ATOM      7  C   UNL     1      45.670  21.639  19.537  0.00  0.00    +0.072 C 
ATOM      8  C   UNL     1      44.808  22.735  20.106  0.00  0.00    -0.145 C 
ATOM     12  C   UNL     1      45.269  23.513  21.080  0.00  0.00    +0.039 C 
ATOM     13  C   UNL     1      46.632  23.305  21.595  0.00  0.00    -0.022 C 
ATOM     14  C   UNL     1      47.238  22.140  21.398  0.00  0.00    +0.022 C 
ATOM     15  C   UNL     1      46.539  21.041  20.645  0.00  0.00    -0.015 C 
ATOM     19  C   UNL     1      47.612  20.129  20.013  0.00  0.00    +0.218 C 
ATOM     22  C   UNL     1      46.260  17.395  18.013  0.00  0.00    +0.510 C 
ATOM     23  O   UNL     1      46.208  16.231  17.669  0.00  0.00    -0.441 OA
ENDROOT
BRANCH  19  20
ATOM     20  O   UNL     1      48.779  20.875  19.664  0.00  0.00    -0.551 OA
ATOM     21  H   UNL     1      49.506  20.335  19.328  0.00  0.00    +0.378 HD
ENDBRANCH  19  20
BRANCH   8   9
ATOM      9  C   UNL     1      43.418  22.952  19.567  0.00  0.00    +0.234 C 
BRANCH   9  10
ATOM     10  O   UNL     1      43.354  24.218  18.908  0.00  0.00    -0.571 OA
ATOM     11  H   UNL     1      43.906  24.279  18.117  0.00  0.00    +0.385 HD
ENDBRANCH   9  10
ENDBRANCH   8   9
BRANCH  15  16
ATOM     16  C   UNL     1      45.657  20.242  21.608  0.00  0.00    +0.198 C 
BRANCH  16  17
ATOM     17  O   UNL     1      46.480  19.417  22.435  0.00  0.00    -0.567 OA
ATOM     18  H   UNL     1      46.801  18.618  21.997  0.00  0.00    +0.384 HD
ENDBRANCH  16  17
ENDBRANCH  15  16
TORSDOF 5
ENDMDL
MODEL 4
REMARK VINA RESULT:      -4.9      2.150      4.494
REMARK  Name = ZINC95486292
REMARK  5 active torsions:
REMARK  status: ('A' for Active; 'I' for Inactive)
REMARK    1  A    between atoms: C7_10  and  C14_20
REMARK    2  A    between atoms: C11_14  and  C13_18
REMARK    3  A    between atoms: C12_15  and  O1_17
REMARK    4  A    between atoms: C13_18  and  O2_19
REMARK    5  A    between atoms: C14_20  and  O3_21
REMARK                            x       y       z     vdW  Elec       q    Type
REMARK                         _______ _______ _______ _____ _____    ______ ____
ROOT
ATOM      1  C   UNL     1      43.755  16.659  21.966  0.00  0.00    +0.189 C 
ATOM      2  C   UNL     1      44.645  17.649  21.992  0.00  0.00    -0.223 C 
ATOM      3  C   UNL     1      44.404  19.124  21.761  0.00  0.00    -0.010 C 
ATOM      4  C   UNL     1      45.825  19.561  21.304  0.00  0.00    +0.175 C 
ATOM      5  O   UNL     1      46.653  18.806  22.189  0.00  0.00    -0.328 OA
ATOM      6  C   UNL     1      45.906  21.071  21.434  0.00  0.00    +0.066 C 
ATOM      7  C   UNL     1      44.542  21.648  21.021  0.00  0.00    +0.072 C 
ATOM      8  C   UNL     1      44.744  23.027  20.451  0.00  0.00    -0.145 C 
ATOM     12  C   UNL     1      43.863  23.535  19.596  0.00  0.00    +0.039 C 
ATOM     13  C   UNL     1      42.680  22.747  19.214  0.00  0.00    -0.022 C 
ATOM     14  C   UNL     1      42.685  21.430  19.383  0.00  0.00    +0.022 C 
ATOM     15  C   UNL     1      43.892  20.747  19.968  0.00  0.00    -0.015 C 
ATOM     19  C   UNL     1      43.429  19.436  20.638  0.00  0.00    +0.218 C 
ATOM     22  C   UNL     1      46.103  17.561  22.261  0.00  0.00    +0.510 C 
ATOM     23  O   UNL     1      46.711  16.537  22.504  0.00  0.00    -0.441 OA
ENDROOT
BRANCH  19  20
ATOM     20  O   UNL     1      42.109  19.569  21.167  0.00  0.00    -0.551 OA
ATOM     21  H   UNL     1      41.921  18.980  21.910  0.00  0.00    +0.378 HD
ENDBRANCH  19  20
BRANCH   8   9
ATOM      9  C   UNL     1      45.951  23.835  20.853  0.00  0.00    +0.234 C 
BRANCH   9  10
ATOM     10  O   UNL     1      45.528  25.095  21.377  0.00  0.00    -0.571 OA
ATOM     11  H   UNL     1      44.679  25.400  21.029  0.00  0.00    +0.385 HD
ENDBRANCH   9  10
ENDBRANCH   8   9
BRANCH  15  16
ATOM     16  C   UNL     1      44.902  20.453  18.857  0.00  0.00    +0.198 C 
BRANCH  16  17
ATOM     17  O   UNL     1      44.471  19.313  18.111  0.00  0.00    -0.567 OA
ATOM     18  H   UNL     1      44.956  18.502  18.318  0.00  0.00    +0.384 HD
ENDBRANCH  16  17
ENDBRANCH  15  16
TORSDOF 5
ENDMDL
MODEL 5
REMARK VINA RESULT:      -4.8      2.151      4.866
REMARK  Name = ZINC95486292
REMARK  5 active torsions:
REMARK  status: ('A' for Active; 'I' for Inactive)
REMARK    1  A    between atoms: C7_10  and  C14_20
REMARK    2  A    between atoms: C11_14  and  C13_18
REMARK    3  A    between atoms: C12_15  and  O1_17
REMARK    4  A    between atoms: C13_18  and  O2_19
REMARK    5  A    between atoms: C14_20  and  O3_21
REMARK                            x       y       z     vdW  Elec       q    Type
REMARK                         _______ _______ _______ _____ _____    ______ ____
ROOT
ATOM      1  C   UNL     1      47.885  17.861  19.751  0.00  0.00    +0.189 C 
ATOM      2  C   UNL     1      46.554  17.858  19.724  0.00  0.00    -0.223 C 
ATOM      3  C   UNL     1      45.629  18.975  19.295  0.00  0.00    -0.010 C 
ATOM      4  C   UNL     1      44.348  18.582  20.084  0.00  0.00    +0.175 C 
ATOM      5  O   UNL     1      44.344  17.162  19.933  0.00  0.00    -0.328 OA
ATOM      6  C   UNL     1      43.178  19.325  19.465  0.00  0.00    +0.066 C 
ATOM      7  C   UNL     1      43.674  20.726  19.069  0.00  0.00    +0.072 C 
ATOM      8  C   UNL     1      42.521  21.692  19.136  0.00  0.00    -0.145 C 
ATOM     12  C   UNL     1      42.742  22.988  19.330  0.00  0.00    +0.039 C 
ATOM     13  C   UNL     1      44.123  23.479  19.470  0.00  0.00    -0.022 C 
ATOM     14  C   UNL     1      45.091  22.633  19.802  0.00  0.00    +0.022 C 
ATOM     15  C   UNL     1      44.779  21.177  20.028  0.00  0.00    -0.015 C 
ATOM     19  C   UNL     1      46.058  20.359  19.749  0.00  0.00    +0.218 C 
ATOM     22  C   UNL     1      45.634  16.755  20.103  0.00  0.00    +0.510 C 
ATOM     23  O   UNL     1      45.979  15.660  20.504  0.00  0.00    -0.441 OA
ENDROOT
BRANCH  19  20
ATOM     20  O   UNL     1      46.851  20.977  18.733  0.00  0.00    -0.551 OA
ATOM     21  H   UNL     1      46.937  21.935  18.830  0.00  0.00    +0.378 HD
ENDBRANCH  19  20
BRANCH   8   9
ATOM      9  C   UNL     1      41.110  21.186  18.981  0.00  0.00    +0.234 C 
BRANCH   9  10
ATOM     10  O   UNL     1      40.310  22.193  18.358  0.00  0.00    -0.571 OA
ATOM     11  H   UNL     1      40.427  23.076  18.732  0.00  0.00    +0.385 HD
ENDBRANCH   9  10
ENDBRANCH   8   9
BRANCH  15  16
ATOM     16  C   UNL     1      44.316  20.972  21.471  0.00  0.00    +0.198 C 
BRANCH  16  17
ATOM     17  O   UNL     1      45.089  21.799  22.343  0.00  0.00    -0.567 OA
ATOM     18  H   UNL     1      45.947  21.423  22.582  0.00  0.00    +0.384 HD
ENDBRANCH  16  17
ENDBRANCH  15  16
TORSDOF 5
ENDMDL
MODEL 6
REMARK VINA RESULT:      -4.7      1.950      3.317
REMARK  Name = ZINC95486292
REMARK  5 active torsions:
REMARK  status: ('A' for Active; 'I' for Inactive)
REMARK    1  A    between atoms: C7_10  and  C14_20
REMARK    2  A    between atoms: C11_14  and  C13_18
REMARK    3  A    between atoms: C12_15  and  O1_17
REMARK    4  A    between atoms: C13_18  and  O2_19
REMARK    5  A    between atoms: C14_20  and  O3_21
REMARK                            x       y       z     vdW  Elec       q    Type
REMARK                         _______ _______ _______ _____ _____    ______ ____
ROOT
ATOM      1  C   UNL     1      41.490  20.896  18.954  0.00  0.00    +0.189 C 
ATOM      2  C   UNL     1      42.184  20.237  19.880  0.00  0.00    -0.223 C 
ATOM      3  C   UNL     1      43.641  20.406  20.247  0.00  0.00    -0.010 C 
ATOM      4  C   UNL     1      43.930  19.003  20.853  0.00  0.00    +0.175 C 
ATOM      5  O   UNL     1      42.732  18.758  21.589  0.00  0.00    -0.328 OA
ATOM      6  C   UNL     1      45.208  19.106  21.664  0.00  0.00    +0.066 C 
ATOM      7  C   UNL     1      46.164  20.046  20.911  0.00  0.00    +0.072 C 
ATOM      8  C   UNL     1      47.584  19.652  21.219  0.00  0.00    -0.145 C 
ATOM     12  C   UNL     1      48.562  19.941  20.366  0.00  0.00    +0.039 C 
ATOM     13  C   UNL     1      48.250  20.658  19.118  0.00  0.00    -0.022 C 
ATOM     14  C   UNL     1      47.006  20.661  18.654  0.00  0.00    +0.022 C 
ATOM     15  C   UNL     1      45.918  19.941  19.404  0.00  0.00    -0.015 C 
ATOM     19  C   UNL     1      44.570  20.611  19.062  0.00  0.00    +0.218 C 
ATOM     22  C   UNL     1      41.703  19.172  20.797  0.00  0.00    +0.510 C 
ATOM     23  O   UNL     1      40.569  18.736  20.834  0.00  0.00    -0.441 OA
ENDROOT
BRANCH  19  20
ATOM     20  O   UNL     1      44.739  22.008  18.816  0.00  0.00    -0.551 OA
ATOM     21  H   UNL     1      43.948  22.536  18.988  0.00  0.00    +0.378 HD
ENDBRANCH  19  20
BRANCH   8   9
ATOM      9  C   UNL     1      47.899  18.928  22.503  0.00  0.00    +0.234 C 
BRANCH   9  10
ATOM     10  O   UNL     1      48.380  17.616  22.204  0.00  0.00    -0.571 OA
ATOM     11  H   UNL     1      48.813  17.543  21.343  0.00  0.00    +0.385 HD
ENDBRANCH   9  10
ENDBRANCH   8   9
BRANCH  15  16
ATOM     16  C   UNL     1      45.903  18.467  18.992  0.00  0.00    +0.198 C 
BRANCH  16  17
ATOM     17  O   UNL     1      45.588  18.363  17.602  0.00  0.00    -0.567 OA
ATOM     18  H   UNL     1      45.298  17.482  17.330  0.00  0.00    +0.384 HD
ENDBRANCH  16  17
ENDBRANCH  15  16
TORSDOF 5
ENDMDL
MODEL 7
REMARK VINA RESULT:      -4.7      5.807      7.324
REMARK  Name = ZINC95486292
REMARK  5 active torsions:
REMARK  status: ('A' for Active; 'I' for Inactive)
REMARK    1  A    between atoms: C7_10  and  C14_20
REMARK    2  A    between atoms: C11_14  and  C13_18
REMARK    3  A    between atoms: C12_15  and  O1_17
REMARK    4  A    between atoms: C13_18  and  O2_19
REMARK    5  A    between atoms: C14_20  and  O3_21
REMARK                            x       y       z     vdW  Elec       q    Type
REMARK                         _______ _______ _______ _____ _____    ______ ____
ROOT
ATOM      1  C   UNL     1      47.343  15.344  18.943  0.00  0.00    +0.189 C 
ATOM      2  C   UNL     1      47.994  16.322  19.569  0.00  0.00    -0.223 C 
ATOM      3  C   UNL     1      48.673  17.528  18.959  0.00  0.00    -0.010 C 
ATOM      4  C   UNL     1      49.707  17.848  20.075  0.00  0.00    +0.175 C 
ATOM      5  O   UNL     1      48.934  17.621  21.254  0.00  0.00    -0.328 OA
ATOM      6  C   UNL     1      50.197  19.268  19.856  0.00  0.00    +0.066 C 
ATOM      7  C   UNL     1      50.317  19.491  18.339  0.00  0.00    +0.072 C 
ATOM      8  C   UNL     1      51.399  20.503  18.076  0.00  0.00    -0.145 C 
ATOM     12  C   UNL     1      52.036  20.516  16.909  0.00  0.00    +0.039 C 
ATOM     13  C   UNL     1      51.670  19.541  15.869  0.00  0.00    -0.022 C 
ATOM     14  C   UNL     1      51.026  18.430  16.206  0.00  0.00    +0.022 C 
ATOM     15  C   UNL     1      50.665  18.172  17.645  0.00  0.00    -0.015 C 
ATOM     19  C   UNL     1      49.434  17.241  17.676  0.00  0.00    +0.218 C 
ATOM     22  C   UNL     1      48.215  16.485  21.028  0.00  0.00    +0.510 C 
ATOM     23  O   UNL     1      47.820  15.722  21.888  0.00  0.00    -0.441 OA
ENDROOT
BRANCH  19  20
ATOM     20  O   UNL     1      48.587  17.473  16.549  0.00  0.00    -0.551 OA
ATOM     21  H   UNL     1      48.798  18.279  16.058  0.00  0.00    +0.378 HD
ENDBRANCH  19  20
BRANCH   8   9
ATOM      9  C   UNL     1      51.762  21.507  19.140  0.00  0.00    +0.234 C 
BRANCH   9  10
ATOM     10  O   UNL     1      53.184  21.592  19.249  0.00  0.00    -0.571 OA
ATOM     11  H   UNL     1      53.497  22.391  19.694  0.00  0.00    +0.385 HD
ENDBRANCH   9  10
ENDBRANCH   8   9
BRANCH  15  16
ATOM     16  C   UNL     1      51.850  17.518  18.360  0.00  0.00    +0.198 C 
BRANCH  16  17
ATOM     17  O   UNL     1      52.505  16.615  17.468  0.00  0.00    -0.567 OA
ATOM     18  H   UNL     1      52.029  16.466  16.639  0.00  0.00    +0.384 HD
ENDBRANCH  16  17
ENDBRANCH  15  16
TORSDOF 5
ENDMDL
MODEL 8
REMARK VINA RESULT:      -4.7      2.248      5.721
REMARK  Name = ZINC95486292
REMARK  5 active torsions:
REMARK  status: ('A' for Active; 'I' for Inactive)
REMARK    1  A    between atoms: C7_10  and  C14_20
REMARK    2  A    between atoms: C11_14  and  C13_18
REMARK    3  A    between atoms: C12_15  and  O1_17
REMARK    4  A    between atoms: C13_18  and  O2_19
REMARK    5  A    between atoms: C14_20  and  O3_21
REMARK                            x       y       z     vdW  Elec       q    Type
REMARK                         _______ _______ _______ _____ _____    ______ ____
ROOT
ATOM      1  C   UNL     1      49.813  17.463  20.079  0.00  0.00    +0.189 C 
ATOM      2  C   UNL     1      49.283  18.656  19.819  0.00  0.00    -0.223 C 
ATOM      3  C   UNL     1      47.907  19.164  20.187  0.00  0.00    -0.010 C 
ATOM      4  C   UNL     1      47.722  20.257  19.097  0.00  0.00    +0.175 C 
ATOM      5  O   UNL     1      49.027  20.837  19.050  0.00  0.00    -0.328 OA
ATOM      6  C   UNL     1      46.597  21.171  19.546  0.00  0.00    +0.066 C 
ATOM      7  C   UNL     1      45.529  20.297  20.223  0.00  0.00    +0.072 C 
ATOM      8  C   UNL     1      44.180  20.941  20.042  0.00  0.00    -0.145 C 
ATOM     12  C   UNL     1      43.075  20.203  20.077  0.00  0.00    +0.039 C 
ATOM     13  C   UNL     1      43.174  18.752  20.303  0.00  0.00    -0.022 C 
ATOM     14  C   UNL     1      44.323  18.128  20.075  0.00  0.00    +0.022 C 
ATOM     15  C   UNL     1      45.522  18.902  19.593  0.00  0.00    -0.015 C 
ATOM     19  C   UNL     1      46.794  18.143  20.027  0.00  0.00    +0.218 C 
ATOM     22  C   UNL     1      49.910  19.800  19.108  0.00  0.00    +0.510 C 
ATOM     23  O   UNL     1      51.034  19.808  18.646  0.00  0.00    -0.441 OA
ENDROOT
BRANCH  19  20
ATOM     20  O   UNL     1      46.586  17.456  21.262  0.00  0.00    -0.551 OA
ATOM     21  H   UNL     1      45.814  16.874  21.263  0.00  0.00    +0.378 HD
ENDBRANCH  19  20
BRANCH   8   9
ATOM      9  C   UNL     1      44.083  22.428  19.822  0.00  0.00    +0.234 C 
BRANCH   9  10
ATOM     10  O   UNL     1      43.762  23.072  21.056  0.00  0.00    -0.571 OA
ATOM     11  H   UNL     1      43.821  24.037  21.024  0.00  0.00    +0.385 HD
ENDBRANCH   9  10
ENDBRANCH   8   9
BRANCH  15  16
ATOM     16  C   UNL     1      45.468  19.032  18.070  0.00  0.00    +0.198 C 
BRANCH  16  17
ATOM     17  O   UNL     1      45.820  17.782  17.472  0.00  0.00    -0.567 OA
ATOM     18  H   UNL     1      45.235  17.052  17.714  0.00  0.00    +0.384 HD
ENDBRANCH  16  17
ENDBRANCH  15  16
TORSDOF 5
ENDMDL
MODEL 9
REMARK VINA RESULT:      -4.5      2.449      4.458
REMARK  Name = ZINC95486292
REMARK  5 active torsions:
REMARK  status: ('A' for Active; 'I' for Inactive)
REMARK    1  A    between atoms: C7_10  and  C14_20
REMARK    2  A    between atoms: C11_14  and  C13_18
REMARK    3  A    between atoms: C12_15  and  O1_17
REMARK    4  A    between atoms: C13_18  and  O2_19
REMARK    5  A    between atoms: C14_20  and  O3_21
REMARK                            x       y       z     vdW  Elec       q    Type
REMARK                         _______ _______ _______ _____ _____    ______ ____
ROOT
ATOM      1  C   UNL     1      43.600  20.023  18.757  0.00  0.00    +0.189 C 
ATOM      2  C   UNL     1      44.711  20.636  19.160  0.00  0.00    -0.223 C 
ATOM      3  C   UNL     1      46.137  20.341  18.750  0.00  0.00    -0.010 C 
ATOM      4  C   UNL     1      46.894  20.908  19.985  0.00  0.00    +0.175 C 
ATOM      5  O   UNL     1      46.153  22.099  20.252  0.00  0.00    -0.328 OA
ATOM      6  C   UNL     1      48.347  21.097  19.588  0.00  0.00    +0.066 C 
ATOM      7  C   UNL     1      48.736  19.922  18.675  0.00  0.00    +0.072 C 
ATOM      8  C   UNL     1      50.208  19.647  18.830  0.00  0.00    -0.145 C 
ATOM     12  C   UNL     1      50.696  18.439  18.567  0.00  0.00    +0.039 C 
ATOM     13  C   UNL     1      49.791  17.371  18.113  0.00  0.00    -0.022 C 
ATOM     14  C   UNL     1      48.488  17.471  18.344  0.00  0.00    +0.022 C 
ATOM     15  C   UNL     1      47.937  18.675  19.060  0.00  0.00    -0.015 C 
ATOM     19  C   UNL     1      46.466  18.863  18.631  0.00  0.00    +0.218 C 
ATOM     22  C   UNL     1      44.837  21.771  20.108  0.00  0.00    +0.510 C 
ATOM     23  O   UNL     1      43.911  22.322  20.671  0.00  0.00    -0.441 OA
ENDROOT
BRANCH  19  20
ATOM     20  O   UNL     1      46.265  18.430  17.284  0.00  0.00    -0.551 OA
ATOM     21  H   UNL     1      45.381  18.080  17.111  0.00  0.00    +0.378 HD
ENDBRANCH  19  20
BRANCH   8   9
ATOM      9  C   UNL     1      51.133  20.747  19.284  0.00  0.00    +0.234 C 
BRANCH   9  10
ATOM     10  O   UNL     1      51.796  21.310  18.150  0.00  0.00    -0.571 OA
ATOM     11  H   UNL     1      52.546  20.788  17.835  0.00  0.00    +0.385 HD
ENDBRANCH   9  10
ENDBRANCH   8   9
BRANCH  15  16
ATOM     16  C   UNL     1      48.031  18.458  20.572  0.00  0.00    +0.198 C 
BRANCH  16  17
ATOM     17  O   UNL     1      47.071  17.477  20.973  0.00  0.00    -0.567 OA
ATOM     18  H   UNL     1      46.158  17.712  20.761  0.00  0.00    +0.384 HD
ENDBRANCH  16  17
ENDBRANCH  15  16
TORSDOF 5
ENDMDL
