MODEL 1
REMARK VINA RESULT:      -6.1      0.000      0.000
REMARK  Name = ZINC03871576
REMARK  3 active torsions:
REMARK  status: ('A' for Active; 'I' for Inactive)
REMARK    1  A    between atoms: C3_3  and  O5_20
REMARK    2  A    between atoms: C6_6  and  C7_7
REMARK    3  A    between atoms: C11_11  and  O3_18
REMARK                            x       y       z     vdW  Elec       q    Type
REMARK                         _______ _______ _______ _____ _____    ______ ____
ROOT
ATOM      9  C   UNL     1      43.956  18.380  20.377  0.00  0.00    +0.173 A 
ATOM     10  C   UNL     1      44.856  19.425  20.384  0.00  0.00    -0.121 A 
ATOM     11  C   UNL     1      44.446  20.697  19.977  0.00  0.00    +0.365 A 
ATOM     12  O   UNL     1      45.310  21.736  19.977  0.00  0.00    -0.578 OA
ATOM     13  C   UNL     1      43.105  20.870  19.566  0.00  0.00    -0.341 A 
ATOM     14  C   UNL     1      42.637  22.133  19.144  0.00  0.00    +0.265 A 
ATOM     17  C   UNL     1      41.338  22.278  18.751  0.00  0.00    -0.262 A 
ATOM     18  C   UNL     1      40.467  21.177  18.765  0.00  0.00    +0.361 A 
ATOM     19  C   UNL     1      40.919  19.921  19.182  0.00  0.00    -0.194 A 
ATOM     20  O   UNL     1      39.198  21.330  18.379  0.00  0.00    -0.667 OA
ATOM     21  C   UNL     1      42.232  19.761  19.582  0.00  0.00    +0.211 A 
ATOM     22  O   UNL     1      42.685  18.553  19.980  0.00  0.00    -0.220 OA
ENDROOT
BRANCH   9   8
ATOM      1  C   UNL     1      44.126  16.598  22.107  0.00  0.00    +0.075 A 
ATOM      2  C   UNL     1      44.543  15.348  22.505  0.00  0.00    -0.013 A 
ATOM      3  C   UNL     1      45.236  14.529  21.621  0.00  0.00    +0.117 A 
ATOM      6  C   UNL     1      45.509  14.967  20.330  0.00  0.00    -0.011 A 
ATOM      7  C   UNL     1      45.097  16.216  19.922  0.00  0.00    +0.071 A 
ATOM      8  C   UNL     1      44.400  17.043  20.809  0.00  0.00    -0.061 A 
BRANCH   3   4
ATOM      4  O   UNL     1      45.645  13.298  22.019  0.00  0.00    -0.499 OA
ATOM      5  H   UNL     1      46.176  13.301  22.827  0.00  0.00    +0.392 HD
ENDBRANCH   3   4
ENDBRANCH   9   8
BRANCH  14  15
ATOM     15  O   UNL     1      43.475  23.199  19.130  0.00  0.00    -0.448 OA
ATOM     16  H   UNL     1      44.365  22.996  18.809  0.00  0.00    +0.383 HD
ENDBRANCH  14  15
TORSDOF 3
ENDMDL
MODEL 2
REMARK VINA RESULT:      -5.9      2.773      4.421
REMARK  Name = ZINC03871576
REMARK  3 active torsions:
REMARK  status: ('A' for Active; 'I' for Inactive)
REMARK    1  A    between atoms: C3_3  and  O5_20
REMARK    2  A    between atoms: C6_6  and  C7_7
REMARK    3  A    between atoms: C11_11  and  O3_18
REMARK                            x       y       z     vdW  Elec       q    Type
REMARK                         _______ _______ _______ _____ _____    ______ ____
ROOT
ATOM      9  C   UNL     1      45.451  19.296  19.708  0.00  0.00    +0.173 A 
ATOM     10  C   UNL     1      45.035  18.364  20.637  0.00  0.00    -0.121 A 
ATOM     11  C   UNL     1      43.682  18.274  20.973  0.00  0.00    +0.365 A 
ATOM     12  O   UNL     1      43.253  17.368  21.880  0.00  0.00    -0.578 OA
ATOM     13  C   UNL     1      42.774  19.154  20.342  0.00  0.00    -0.341 A 
ATOM     14  C   UNL     1      41.397  19.107  20.645  0.00  0.00    +0.265 A 
ATOM     17  C   UNL     1      40.537  19.967  20.024  0.00  0.00    -0.262 A 
ATOM     18  C   UNL     1      41.017  20.895  19.086  0.00  0.00    +0.361 A 
ATOM     19  C   UNL     1      42.381  20.949  18.778  0.00  0.00    -0.194 A 
ATOM     20  O   UNL     1      40.168  21.730  18.485  0.00  0.00    -0.667 OA
ATOM     21  C   UNL     1      43.261  20.086  19.400  0.00  0.00    +0.211 A 
ATOM     22  O   UNL     1      44.581  20.131  19.117  0.00  0.00    -0.220 OA
ENDROOT
BRANCH   9   8
ATOM      1  C   UNL     1      47.538  20.614  19.394  0.00  0.00    +0.075 A 
ATOM      2  C   UNL     1      48.874  20.688  19.070  0.00  0.00    -0.013 A 
ATOM      3  C   UNL     1      49.568  19.539  18.711  0.00  0.00    +0.117 A 
ATOM      6  C   UNL     1      48.919  18.310  18.678  0.00  0.00    -0.011 A 
ATOM      7  C   UNL     1      47.583  18.226  19.000  0.00  0.00    +0.071 A 
ATOM      8  C   UNL     1      46.880  19.380  19.362  0.00  0.00    -0.061 A 
BRANCH   3   4
ATOM      4  O   UNL     1      50.886  19.617  18.392  0.00  0.00    -0.499 OA
ATOM      5  H   UNL     1      51.479  19.317  19.094  0.00  0.00    +0.392 HD
ENDBRANCH   3   4
ENDBRANCH   9   8
BRANCH  14  15
ATOM     15  O   UNL     1      40.929  18.212  21.549  0.00  0.00    -0.448 OA
ATOM     16  H   UNL     1      40.204  17.661  21.220  0.00  0.00    +0.383 HD
ENDBRANCH  14  15
TORSDOF 3
ENDMDL
MODEL 3
REMARK VINA RESULT:      -5.8      4.913      8.025
REMARK  Name = ZINC03871576
REMARK  3 active torsions:
REMARK  status: ('A' for Active; 'I' for Inactive)
REMARK    1  A    between atoms: C3_3  and  O5_20
REMARK    2  A    between atoms: C6_6  and  C7_7
REMARK    3  A    between atoms: C11_11  and  O3_18
REMARK                            x       y       z     vdW  Elec       q    Type
REMARK                         _______ _______ _______ _____ _____    ______ ____
ROOT
ATOM      9  C   UNL     1      48.185  20.273  19.096  0.00  0.00    +0.173 A 
ATOM     10  C   UNL     1      49.416  20.873  18.927  0.00  0.00    -0.121 A 
ATOM     11  C   UNL     1      50.471  20.147  18.370  0.00  0.00    +0.365 A 
ATOM     12  O   UNL     1      51.685  20.714  18.195  0.00  0.00    -0.578 OA
ATOM     13  C   UNL     1      50.238  18.804  17.995  0.00  0.00    -0.341 A 
ATOM     14  C   UNL     1      51.268  18.024  17.428  0.00  0.00    +0.265 A 
ATOM     17  C   UNL     1      51.021  16.730  17.073  0.00  0.00    -0.262 A 
ATOM     18  C   UNL     1      49.748  16.172  17.269  0.00  0.00    +0.361 A 
ATOM     19  C   UNL     1      48.718  16.937  17.829  0.00  0.00    -0.194 A 
ATOM     20  O   UNL     1      49.517  14.905  16.918  0.00  0.00    -0.667 OA
ATOM     21  C   UNL     1      48.956  18.247  18.193  0.00  0.00    +0.211 A 
ATOM     22  O   UNL     1      47.974  18.995  18.741  0.00  0.00    -0.220 OA
ENDROOT
BRANCH   9   8
ATOM      1  C   UNL     1      47.230  21.640  20.944  0.00  0.00    +0.075 A 
ATOM      2  C   UNL     1      46.195  22.365  21.489  0.00  0.00    -0.013 A 
ATOM      3  C   UNL     1      45.002  22.510  20.790  0.00  0.00    +0.117 A 
ATOM      6  C   UNL     1      44.848  21.926  19.538  0.00  0.00    -0.011 A 
ATOM      7  C   UNL     1      45.878  21.198  18.985  0.00  0.00    +0.071 A 
ATOM      8  C   UNL     1      47.080  21.049  19.685  0.00  0.00    -0.061 A 
BRANCH   3   4
ATOM      4  O   UNL     1      43.983  23.226  21.333  0.00  0.00    -0.499 OA
ATOM      5  H   UNL     1      43.964  24.153  21.058  0.00  0.00    +0.392 HD
ENDBRANCH   3   4
ENDBRANCH   9   8
BRANCH  14  15
ATOM     15  O   UNL     1      52.500  18.559  17.236  0.00  0.00    -0.448 OA
ATOM     16  H   UNL     1      52.908  18.316  16.394  0.00  0.00    +0.383 HD
ENDBRANCH  14  15
TORSDOF 3
ENDMDL
MODEL 4
REMARK VINA RESULT:      -5.6      2.274      3.970
REMARK  Name = ZINC03871576
REMARK  3 active torsions:
REMARK  status: ('A' for Active; 'I' for Inactive)
REMARK    1  A    between atoms: C3_3  and  O5_20
REMARK    2  A    between atoms: C6_6  and  C7_7
REMARK    3  A    between atoms: C11_11  and  O3_18
REMARK                            x       y       z     vdW  Elec       q    Type
REMARK                         _______ _______ _______ _____ _____    ______ ____
ROOT
ATOM      9  C   UNL     1      45.209  18.791  19.379  0.00  0.00    +0.173 A 
ATOM     10  C   UNL     1      43.980  19.311  19.028  0.00  0.00    -0.121 A 
ATOM     11  C   UNL     1      43.659  20.626  19.370  0.00  0.00    +0.365 A 
ATOM     12  O   UNL     1      42.461  21.156  19.037  0.00  0.00    -0.578 OA
ATOM     13  C   UNL     1      44.617  21.390  20.075  0.00  0.00    -0.341 A 
ATOM     14  C   UNL     1      44.346  22.724  20.446  0.00  0.00    +0.265 A 
ATOM     17  C   UNL     1      45.286  23.442  21.126  0.00  0.00    -0.262 A 
ATOM     18  C   UNL     1      46.521  22.861  21.456  0.00  0.00    +0.361 A 
ATOM     19  C   UNL     1      46.801  21.540  21.092  0.00  0.00    -0.194 A 
ATOM     20  O   UNL     1      47.433  23.573  22.121  0.00  0.00    -0.667 OA
ATOM     21  C   UNL     1      45.858  20.801  20.405  0.00  0.00    +0.211 A 
ATOM     22  O   UNL     1      46.112  19.523  20.052  0.00  0.00    -0.220 OA
ENDROOT
BRANCH   9   8
ATOM      1  C   UNL     1      45.172  16.349  19.858  0.00  0.00    +0.075 A 
ATOM      2  C   UNL     1      45.479  15.053  19.510  0.00  0.00    -0.013 A 
ATOM      3  C   UNL     1      46.149  14.791  18.321  0.00  0.00    +0.117 A 
ATOM      6  C   UNL     1      46.512  15.834  17.477  0.00  0.00    -0.011 A 
ATOM      7  C   UNL     1      46.210  17.134  17.816  0.00  0.00    +0.071 A 
ATOM      8  C   UNL     1      45.535  17.403  19.012  0.00  0.00    -0.061 A 
BRANCH   3   4
ATOM      4  O   UNL     1      46.450  13.511  17.982  0.00  0.00    -0.499 OA
ATOM      5  H   UNL     1      46.102  12.849  18.596  0.00  0.00    +0.392 HD
ENDBRANCH   3   4
ENDBRANCH   9   8
BRANCH  14  15
ATOM     15  O   UNL     1      43.155  23.289  20.129  0.00  0.00    -0.448 OA
ATOM     16  H   UNL     1      42.769  22.959  19.305  0.00  0.00    +0.383 HD
ENDBRANCH  14  15
TORSDOF 3
ENDMDL
MODEL 5
REMARK VINA RESULT:      -5.6      4.108      5.132
REMARK  Name = ZINC03871576
REMARK  3 active torsions:
REMARK  status: ('A' for Active; 'I' for Inactive)
REMARK    1  A    between atoms: C3_3  and  O5_20
REMARK    2  A    between atoms: C6_6  and  C7_7
REMARK    3  A    between atoms: C11_11  and  O3_18
REMARK                            x       y       z     vdW  Elec       q    Type
REMARK                         _______ _______ _______ _____ _____    ______ ____
ROOT
ATOM      9  C   UNL     1      47.797  20.431  19.400  0.00  0.00    +0.173 A 
ATOM     10  C   UNL     1      47.740  21.446  20.333  0.00  0.00    -0.121 A 
ATOM     11  C   UNL     1      46.505  21.994  20.687  0.00  0.00    +0.365 A 
ATOM     12  O   UNL     1      46.426  22.988  21.599  0.00  0.00    -0.578 OA
ATOM     13  C   UNL     1      45.342  21.485  20.068  0.00  0.00    -0.341 A 
ATOM     14  C   UNL     1      44.068  22.002  20.387  0.00  0.00    +0.265 A 
ATOM     17  C   UNL     1      42.958  21.496  19.777  0.00  0.00    -0.262 A 
ATOM     18  C   UNL     1      43.077  20.462  18.834  0.00  0.00    +0.361 A 
ATOM     19  C   UNL     1      44.335  19.940  18.510  0.00  0.00    -0.194 A 
ATOM     20  O   UNL     1      41.985  19.973  18.243  0.00  0.00    -0.667 OA
ATOM     21  C   UNL     1      45.466  20.445  19.120  0.00  0.00    +0.211 A 
ATOM     22  O   UNL     1      46.687  19.956  18.813  0.00  0.00    -0.220 OA
ENDROOT
BRANCH   9   8
ATOM      1  C   UNL     1      49.238  18.482  18.834  0.00  0.00    +0.075 A 
ATOM      2  C   UNL     1      50.462  17.954  18.493  0.00  0.00    -0.013 A 
ATOM      3  C   UNL     1      51.566  18.787  18.348  0.00  0.00    +0.117 A 
ATOM      6  C   UNL     1      51.439  20.158  18.547  0.00  0.00    -0.011 A 
ATOM      7  C   UNL     1      50.218  20.695  18.889  0.00  0.00    +0.071 A 
ATOM      8  C   UNL     1      49.105  19.861  19.035  0.00  0.00    -0.061 A 
BRANCH   3   4
ATOM      4  O   UNL     1      52.771  18.261  18.012  0.00  0.00    -0.499 OA
ATOM      5  H   UNL     1      53.253  17.874  18.756  0.00  0.00    +0.392 HD
ENDBRANCH   3   4
ENDBRANCH   9   8
BRANCH  14  15
ATOM     15  O   UNL     1      43.949  23.000  21.298  0.00  0.00    -0.448 OA
ATOM     16  H   UNL     1      44.792  23.388  21.570  0.00  0.00    +0.383 HD
ENDBRANCH  14  15
TORSDOF 3
ENDMDL
MODEL 6
REMARK VINA RESULT:      -5.6      4.269      7.903
REMARK  Name = ZINC03871576
REMARK  3 active torsions:
REMARK  status: ('A' for Active; 'I' for Inactive)
REMARK    1  A    between atoms: C3_3  and  O5_20
REMARK    2  A    between atoms: C6_6  and  C7_7
REMARK    3  A    between atoms: C11_11  and  O3_18
REMARK                            x       y       z     vdW  Elec       q    Type
REMARK                         _______ _______ _______ _____ _____    ______ ____
ROOT
ATOM      9  C   UNL     1      46.507  19.029  18.385  0.00  0.00    +0.173 A 
ATOM     10  C   UNL     1      46.021  17.932  17.704  0.00  0.00    -0.121 A 
ATOM     11  C   UNL     1      46.897  16.926  17.292  0.00  0.00    +0.365 A 
ATOM     12  O   UNL     1      46.442  15.842  16.625  0.00  0.00    -0.578 OA
ATOM     13  C   UNL     1      48.271  17.069  17.589  0.00  0.00    -0.341 A 
ATOM     14  C   UNL     1      49.201  16.084  17.196  0.00  0.00    +0.265 A 
ATOM     17  C   UNL     1      50.524  16.242  17.493  0.00  0.00    -0.262 A 
ATOM     18  C   UNL     1      50.962  17.381  18.189  0.00  0.00    +0.361 A 
ATOM     19  C   UNL     1      50.049  18.364  18.585  0.00  0.00    -0.194 A 
ATOM     20  O   UNL     1      52.258  17.526  18.475  0.00  0.00    -0.667 OA
ATOM     21  C   UNL     1      48.708  18.216  18.289  0.00  0.00    +0.211 A 
ATOM     22  O   UNL     1      47.816  19.159  18.659  0.00  0.00    -0.220 OA
ENDROOT
BRANCH   9   8
ATOM      1  C   UNL     1      44.201  19.818  18.888  0.00  0.00    +0.075 A 
ATOM      2  C   UNL     1      43.332  20.807  19.291  0.00  0.00    -0.013 A 
ATOM      3  C   UNL     1      43.815  22.067  19.624  0.00  0.00    +0.117 A 
ATOM      6  C   UNL     1      45.178  22.335  19.554  0.00  0.00    -0.011 A 
ATOM      7  C   UNL     1      46.055  21.353  19.151  0.00  0.00    +0.071 A 
ATOM      8  C   UNL     1      45.573  20.084  18.814  0.00  0.00    -0.061 A 
BRANCH   3   4
ATOM      4  O   UNL     1      42.954  23.038  20.021  0.00  0.00    -0.499 OA
ATOM      5  H   UNL     1      43.378  23.779  20.475  0.00  0.00    +0.392 HD
ENDBRANCH   3   4
ENDBRANCH   9   8
BRANCH  14  15
ATOM     15  O   UNL     1      48.782  14.982  16.525  0.00  0.00    -0.448 OA
ATOM     16  H   UNL     1      48.956  15.011  15.574  0.00  0.00    +0.383 HD
ENDBRANCH  14  15
TORSDOF 3
ENDMDL
MODEL 7
REMARK VINA RESULT:      -5.6      3.999      5.600
REMARK  Name = ZINC03871576
REMARK  3 active torsions:
REMARK  status: ('A' for Active; 'I' for Inactive)
REMARK    1  A    between atoms: C3_3  and  O5_20
REMARK    2  A    between atoms: C6_6  and  C7_7
REMARK    3  A    between atoms: C11_11  and  O3_18
REMARK                            x       y       z     vdW  Elec       q    Type
REMARK                         _______ _______ _______ _____ _____    ______ ____
ROOT
ATOM      9  C   UNL     1      47.459  19.685  19.317  0.00  0.00    +0.173 A 
ATOM     10  C   UNL     1      46.744  20.828  19.024  0.00  0.00    -0.121 A 
ATOM     11  C   UNL     1      45.411  20.937  19.427  0.00  0.00    +0.365 A 
ATOM     12  O   UNL     1      44.693  22.047  19.150  0.00  0.00    -0.578 OA
ATOM     13  C   UNL     1      44.833  19.856  20.130  0.00  0.00    -0.341 A 
ATOM     14  C   UNL     1      43.490  19.912  20.561  0.00  0.00    +0.265 A 
ATOM     17  C   UNL     1      42.951  18.857  21.239  0.00  0.00    -0.262 A 
ATOM     18  C   UNL     1      43.727  17.718  21.510  0.00  0.00    +0.361 A 
ATOM     19  C   UNL     1      45.060  17.653  21.089  0.00  0.00    -0.194 A 
ATOM     20  O   UNL     1      43.190  16.693  22.174  0.00  0.00    -0.667 OA
ATOM     21  C   UNL     1      45.616  18.713  20.401  0.00  0.00    +0.211 A 
ATOM     22  O   UNL     1      46.899  18.661  19.982  0.00  0.00    -0.220 OA
ENDROOT
BRANCH   9   8
ATOM      1  C   UNL     1      49.644  20.736  18.759  0.00  0.00    +0.075 A 
ATOM      2  C   UNL     1      50.957  20.635  18.357  0.00  0.00    -0.013 A 
ATOM      3  C   UNL     1      51.507  19.389  18.078  0.00  0.00    +0.117 A 
ATOM      6  C   UNL     1      50.735  18.240  18.205  0.00  0.00    -0.011 A 
ATOM      7  C   UNL     1      49.421  18.330  18.606  0.00  0.00    +0.071 A 
ATOM      8  C   UNL     1      48.863  19.582  18.887  0.00  0.00    -0.061 A 
BRANCH   3   4
ATOM      4  O   UNL     1      52.802  19.295  17.682  0.00  0.00    -0.499 OA
ATOM      5  H   UNL     1      53.052  19.933  17.000  0.00  0.00    +0.392 HD
ENDBRANCH   3   4
ENDBRANCH   9   8
BRANCH  14  15
ATOM     15  O   UNL     1      42.738  21.010  20.302  0.00  0.00    -0.448 OA
ATOM     16  H   UNL     1      41.882  20.815  19.895  0.00  0.00    +0.383 HD
ENDBRANCH  14  15
TORSDOF 3
ENDMDL
MODEL 8
REMARK VINA RESULT:      -5.5      5.099      8.137
REMARK  Name = ZINC03871576
REMARK  3 active torsions:
REMARK  status: ('A' for Active; 'I' for Inactive)
REMARK    1  A    between atoms: C3_3  and  O5_20
REMARK    2  A    between atoms: C6_6  and  C7_7
REMARK    3  A    between atoms: C11_11  and  O3_18
REMARK                            x       y       z     vdW  Elec       q    Type
REMARK                         _______ _______ _______ _____ _____    ______ ____
ROOT
ATOM      9  C   UNL     1      47.568  19.727  18.825  0.00  0.00    +0.173 A 
ATOM     10  C   UNL     1      47.748  18.442  18.356  0.00  0.00    -0.121 A 
ATOM     11  C   UNL     1      49.040  17.955  18.143  0.00  0.00    +0.365 A 
ATOM     12  O   UNL     1      49.239  16.700  17.684  0.00  0.00    -0.578 OA
ATOM     13  C   UNL     1      50.133  18.809  18.417  0.00  0.00    -0.341 A 
ATOM     14  C   UNL     1      51.459  18.369  18.219  0.00  0.00    +0.265 A 
ATOM     17  C   UNL     1      52.499  19.210  18.490  0.00  0.00    -0.262 A 
ATOM     18  C   UNL     1      52.255  20.508  18.965  0.00  0.00    +0.361 A 
ATOM     19  C   UNL     1      50.944  20.954  19.167  0.00  0.00    -0.194 A 
ATOM     20  O   UNL     1      53.280  21.322  19.228  0.00  0.00    -0.667 OA
ATOM     21  C   UNL     1      49.883  20.114  18.895  0.00  0.00    +0.211 A 
ATOM     22  O   UNL     1      48.612  20.532  19.079  0.00  0.00    -0.220 OA
ENDROOT
BRANCH   9   8
ATOM      1  C   UNL     1      45.102  19.500  18.577  0.00  0.00    +0.075 A 
ATOM      2  C   UNL     1      43.826  19.972  18.787  0.00  0.00    -0.013 A 
ATOM      3  C   UNL     1      43.629  21.171  19.464  0.00  0.00    +0.117 A 
ATOM      6  C   UNL     1      44.718  21.897  19.933  0.00  0.00    -0.011 A 
ATOM      7  C   UNL     1      45.998  21.433  19.727  0.00  0.00    +0.071 A 
ATOM      8  C   UNL     1      46.201  20.228  19.046  0.00  0.00    -0.061 A 
BRANCH   3   4
ATOM      4  O   UNL     1      42.369  21.632  19.669  0.00  0.00    -0.499 OA
ATOM      5  H   UNL     1      41.809  21.034  20.183  0.00  0.00    +0.392 HD
ENDBRANCH   3   4
ENDBRANCH   9   8
BRANCH  14  15
ATOM     15  O   UNL     1      51.699  17.116  17.760  0.00  0.00    -0.448 OA
ATOM     16  H   UNL     1      52.398  17.067  17.094  0.00  0.00    +0.383 HD
ENDBRANCH  14  15
TORSDOF 3
ENDMDL
MODEL 9
REMARK VINA RESULT:      -5.4      4.103      6.058
REMARK  Name = ZINC03871576
REMARK  3 active torsions:
REMARK  status: ('A' for Active; 'I' for Inactive)
REMARK    1  A    between atoms: C3_3  and  O5_20
REMARK    2  A    between atoms: C6_6  and  C7_7
REMARK    3  A    between atoms: C11_11  and  O3_18
REMARK                            x       y       z     vdW  Elec       q    Type
REMARK                         _______ _______ _______ _____ _____    ______ ____
ROOT
ATOM      9  C   UNL     1      47.863  19.916  20.079  0.00  0.00    +0.173 A 
ATOM     10  C   UNL     1      47.655  18.784  20.840  0.00  0.00    -0.121 A 
ATOM     11  C   UNL     1      46.355  18.314  21.044  0.00  0.00    +0.365 A 
ATOM     12  O   UNL     1      46.128  17.208  21.786  0.00  0.00    -0.578 OA
ATOM     13  C   UNL     1      45.284  19.026  20.457  0.00  0.00    -0.341 A 
ATOM     14  C   UNL     1      43.951  18.597  20.631  0.00  0.00    +0.265 A 
ATOM     17  C   UNL     1      42.933  19.298  20.056  0.00  0.00    -0.262 A 
ATOM     18  C   UNL     1      43.205  20.444  19.291  0.00  0.00    +0.361 A 
ATOM     19  C   UNL     1      44.523  20.878  19.111  0.00  0.00    -0.194 A 
ATOM     20  O   UNL     1      42.201  21.123  18.732  0.00  0.00    -0.667 OA
ATOM     21  C   UNL     1      45.563  20.177  19.689  0.00  0.00    +0.211 A 
ATOM     22  O   UNL     1      46.839  20.588  19.529  0.00  0.00    -0.220 OA
ENDROOT
BRANCH   9   8
ATOM      1  C   UNL     1      49.669  20.760  18.589  0.00  0.00    +0.075 A 
ATOM      2  C   UNL     1      50.955  21.213  18.400  0.00  0.00    -0.013 A 
ATOM      3  C   UNL     1      51.825  21.315  19.479  0.00  0.00    +0.117 A 
ATOM      6  C   UNL     1      51.401  20.960  20.755  0.00  0.00    -0.011 A 
ATOM      7  C   UNL     1      50.117  20.505  20.955  0.00  0.00    +0.071 A 
ATOM      8  C   UNL     1      49.238  20.401  19.871  0.00  0.00    -0.061 A 
BRANCH   3   4
ATOM      4  O   UNL     1      53.092  21.762  19.287  0.00  0.00    -0.499 OA
ATOM      5  H   UNL     1      53.671  21.127  18.844  0.00  0.00    +0.392 HD
ENDBRANCH   3   4
ENDBRANCH   9   8
BRANCH  14  15
ATOM     15  O   UNL     1      43.684  17.490  21.368  0.00  0.00    -0.448 OA
ATOM     16  H   UNL     1      42.748  17.377  21.584  0.00  0.00    +0.383 HD
ENDBRANCH  14  15
TORSDOF 3
ENDMDL
