MODEL 1
REMARK VINA RESULT:      -6.3      0.000      0.000
REMARK  Name = ZINC95486132
REMARK  10 active torsions:
REMARK  status: ('A' for Active; 'I' for Inactive)
REMARK    1  A    between atoms: C1_1  and  C2_2
REMARK    2  A    between atoms: C10_12  and  C18_26
REMARK    3  A    between atoms: C10_12  and  C19_27
REMARK    4  A    between atoms: C11_13  and  C15_19
REMARK    5  A    between atoms: C12_15  and  C14_18
REMARK    6  A    between atoms: C15_19  and  C16_21
REMARK    7  A    between atoms: C15_19  and  O4_25
REMARK    8  A    between atoms: C16_21  and  O3_23
REMARK    9  A    between atoms: O3_23  and  C17_24
REMARK   10  A    between atoms: C23_34  and  C24_36
REMARK                            x       y       z     vdW  Elec       q    Type
REMARK                         _______ _______ _______ _____ _____    ______ ____
ROOT
ATOM      1  C   UNL     1      51.539  21.115  18.214  0.00  0.00    +0.035 C 
ATOM      2  C   UNL     1      50.597  19.998  18.594  0.00  0.00    -0.075 C 
ATOM      3  C   UNL     1      49.187  20.618  18.855  0.00  0.00    +0.054 C 
ATOM      4  C   UNL     1      48.245  19.446  19.233  0.00  0.00    +0.032 C 
ATOM      5  C   UNL     1      48.049  18.522  17.988  0.00  0.00    +0.053 C 
ATOM      6  C   UNL     1      49.421  17.946  17.619  0.00  0.00    -0.107 C 
ATOM      7  C   UNL     1      49.578  16.773  17.405  0.00  0.00    -0.007 C 
ATOM      8  C   UNL     1      48.539  15.765  17.400  0.00  0.00    +0.020 C 
ATOM      9  C   UNL     1      48.498  14.987  18.737  0.00  0.00    +0.066 C 
ATOM     10  C   UNL     1      48.067  15.798  19.860  0.00  0.00    -0.059 C 
ATOM     11  C   UNL     1      47.334  14.760  20.819  0.00  0.00    +0.011 C 
ATOM     12  C   UNL     1      49.218  16.293  20.666  0.00  0.00    +0.042 C 
ATOM     13  C   UNL     1      47.100  16.898  19.657  0.00  0.00    +0.036 C 
ATOM     21  C   UNL     1      47.229  16.388  17.277  0.00  0.00    +0.356 C 
ATOM     22  O   UNL     1      46.405  16.130  16.336  0.00  0.00    -0.451 OA
ATOM     23  C   UNL     1      47.009  17.493  18.240  0.00  0.00    -0.070 C 
ATOM     24  C   UNL     1      45.617  18.080  18.035  0.00  0.00    +0.069 C 
ATOM     25  C   UNL     1      51.147  19.352  19.833  0.00  0.00    +0.284 C 
ATOM     31  O   UNL     1      52.420  18.609  19.552  0.00  0.00    -0.378 OA
ATOM     32  C   UNL     1      52.298  17.705  18.578  0.00  0.00    +0.500 C 
ATOM     33  O   UNL     1      52.683  16.634  18.684  0.00  0.00    -0.420 OA
ATOM     34  C   UNL     1      51.876  18.296  17.194  0.00  0.00    +0.025 C 
ATOM     35  C   UNL     1      50.520  19.005  17.390  0.00  0.00    +0.070 C 
ENDROOT
BRANCH  25  26
ATOM     26  C   UNL     1      51.445  20.404  20.870  0.00  0.00    -0.190 A 
ATOM     27  C   UNL     1      50.518  21.001  21.755  0.00  0.00    -0.049 A 
ATOM     28  C   UNL     1      51.206  21.881  22.505  0.00  0.00    +0.169 A 
ATOM     29  O   UNL     1      52.493  21.850  22.122  0.00  0.00    -0.173 OA
ATOM     30  C   UNL     1      52.644  20.952  21.135  0.00  0.00    +0.202 A 
ENDBRANCH  25  26
BRANCH  13  14
ATOM     14  C   UNL     1      45.609  16.391  20.045  0.00  0.00    +0.242 C 
BRANCH  14  15
ATOM     15  O   UNL     1      45.536  14.972  19.902  0.00  0.00    -0.520 OA
ATOM     16  H   UNL     1      44.673  14.651  19.606  0.00  0.00    +0.382 HD
ENDBRANCH  14  15
BRANCH  14  17
ATOM     17  C   UNL     1      45.308  16.769  21.473  0.00  0.00    +0.459 C 
ATOM     20  O   UNL     1      45.952  17.634  22.017  0.00  0.00    -0.507 OA
BRANCH  17  18
ATOM     18  O   UNL     1      44.324  16.143  22.139  0.00  0.00    -0.359 OA
ATOM     19  C   UNL     1      43.114  16.875  22.344  0.00  0.00    +0.257 C 
ENDBRANCH  17  18
ENDBRANCH  14  17
ENDBRANCH  13  14
TORSDOF 5
ENDMDL
MODEL 2
REMARK VINA RESULT:      -5.9      2.233      6.237
REMARK  Name = ZINC95486132
REMARK  10 active torsions:
REMARK  status: ('A' for Active; 'I' for Inactive)
REMARK    1  A    between atoms: C1_1  and  C2_2
REMARK    2  A    between atoms: C10_12  and  C18_26
REMARK    3  A    between atoms: C10_12  and  C19_27
REMARK    4  A    between atoms: C11_13  and  C15_19
REMARK    5  A    between atoms: C12_15  and  C14_18
REMARK    6  A    between atoms: C15_19  and  C16_21
REMARK    7  A    between atoms: C15_19  and  O4_25
REMARK    8  A    between atoms: C16_21  and  O3_23
REMARK    9  A    between atoms: O3_23  and  C17_24
REMARK   10  A    between atoms: C23_34  and  C24_36
REMARK                            x       y       z     vdW  Elec       q    Type
REMARK                         _______ _______ _______ _____ _____    ______ ____
ROOT
ATOM      1  C   UNL     1      43.852  19.539  18.897  0.00  0.00    +0.035 C 
ATOM      2  C   UNL     1      45.285  19.302  19.310  0.00  0.00    -0.075 C 
ATOM      3  C   UNL     1      45.704  17.880  18.816  0.00  0.00    +0.054 C 
ATOM      4  C   UNL     1      47.179  17.673  19.248  0.00  0.00    +0.032 C 
ATOM      5  C   UNL     1      48.091  18.657  18.448  0.00  0.00    +0.053 C 
ATOM      6  C   UNL     1      47.670  20.083  18.820  0.00  0.00    -0.107 C 
ATOM      7  C   UNL     1      48.476  20.923  19.123  0.00  0.00    -0.007 C 
ATOM      8  C   UNL     1      49.914  20.755  19.131  0.00  0.00    +0.020 C 
ATOM      9  C   UNL     1      50.443  20.469  20.557  0.00  0.00    +0.066 C 
ATOM     10  C   UNL     1      50.029  19.180  21.076  0.00  0.00    -0.059 C 
ATOM     11  C   UNL     1      51.228  18.751  22.030  0.00  0.00    +0.011 C 
ATOM     12  C   UNL     1      48.857  19.295  21.986  0.00  0.00    +0.042 C 
ATOM     13  C   UNL     1      49.829  18.038  20.158  0.00  0.00    +0.036 C 
ATOM     21  C   UNL     1      50.292  19.593  18.340  0.00  0.00    +0.356 C 
ATOM     22  O   UNL     1      51.083  19.642  17.338  0.00  0.00    -0.451 OA
ATOM     23  C   UNL     1      49.529  18.371  18.686  0.00  0.00    -0.070 C 
ATOM     24  C   UNL     1      49.993  17.213  17.808  0.00  0.00    +0.069 C 
ATOM     25  C   UNL     1      45.339  19.397  20.808  0.00  0.00    +0.284 C 
ATOM     31  O   UNL     1      45.103  20.801  21.282  0.00  0.00    -0.378 OA
ATOM     32  C   UNL     1      45.934  21.689  20.734  0.00  0.00    +0.500 C 
ATOM     33  O   UNL     1      46.495  22.468  21.355  0.00  0.00    -0.420 OA
ATOM     34  C   UNL     1      45.849  21.782  19.177  0.00  0.00    +0.025 C 
ATOM     35  C   UNL     1      46.170  20.383  18.613  0.00  0.00    +0.070 C 
ENDROOT
BRANCH  25  26
ATOM     26  C   UNL     1      44.276  18.518  21.416  0.00  0.00    -0.190 A 
ATOM     27  C   UNL     1      44.415  17.159  21.782  0.00  0.00    -0.049 A 
ATOM     28  C   UNL     1      43.229  16.768  22.283  0.00  0.00    +0.169 A 
ATOM     29  O   UNL     1      42.385  17.811  22.240  0.00  0.00    -0.173 OA
ATOM     30  C   UNL     1      43.016  18.877  21.720  0.00  0.00    +0.202 A 
ENDBRANCH  25  26
BRANCH  13  14
ATOM     14  C   UNL     1      51.150  17.097  20.162  0.00  0.00    +0.242 C 
BRANCH  14  15
ATOM     15  O   UNL     1      52.285  17.871  20.554  0.00  0.00    -0.520 OA
ATOM     16  H   UNL     1      52.073  18.780  20.806  0.00  0.00    +0.382 HD
ENDBRANCH  14  15
BRANCH  14  17
ATOM     17  C   UNL     1      50.955  15.962  21.135  0.00  0.00    +0.459 C 
ATOM     20  O   UNL     1      51.914  15.389  21.593  0.00  0.00    -0.507 OA
BRANCH  17  18
ATOM     18  O   UNL     1      49.715  15.590  21.492  0.00  0.00    -0.359 OA
ATOM     19  C   UNL     1      49.149  14.477  20.799  0.00  0.00    +0.257 C 
ENDBRANCH  17  18
ENDBRANCH  14  17
ENDBRANCH  13  14
TORSDOF 5
ENDMDL
MODEL 3
REMARK VINA RESULT:      -5.8      3.465      6.889
REMARK  Name = ZINC95486132
REMARK  10 active torsions:
REMARK  status: ('A' for Active; 'I' for Inactive)
REMARK    1  A    between atoms: C1_1  and  C2_2
REMARK    2  A    between atoms: C10_12  and  C18_26
REMARK    3  A    between atoms: C10_12  and  C19_27
REMARK    4  A    between atoms: C11_13  and  C15_19
REMARK    5  A    between atoms: C12_15  and  C14_18
REMARK    6  A    between atoms: C15_19  and  C16_21
REMARK    7  A    between atoms: C15_19  and  O4_25
REMARK    8  A    between atoms: C16_21  and  O3_23
REMARK    9  A    between atoms: O3_23  and  C17_24
REMARK   10  A    between atoms: C23_34  and  C24_36
REMARK                            x       y       z     vdW  Elec       q    Type
REMARK                         _______ _______ _______ _____ _____    ______ ____
ROOT
ATOM      1  C   UNL     1      44.350  22.334  22.456  0.00  0.00    +0.035 C 
ATOM      2  C   UNL     1      45.349  21.497  21.694  0.00  0.00    -0.075 C 
ATOM      3  C   UNL     1      46.684  22.301  21.598  0.00  0.00    +0.054 C 
ATOM      4  C   UNL     1      47.688  21.411  20.819  0.00  0.00    +0.032 C 
ATOM      5  C   UNL     1      48.040  20.158  21.682  0.00  0.00    +0.053 C 
ATOM      6  C   UNL     1      46.746  19.364  21.894  0.00  0.00    -0.107 C 
ATOM      7  C   UNL     1      46.696  18.175  21.716  0.00  0.00    -0.007 C 
ATOM      8  C   UNL     1      47.809  17.326  21.349  0.00  0.00    +0.020 C 
ATOM      9  C   UNL     1      47.819  17.031  19.829  0.00  0.00    +0.066 C 
ATOM     10  C   UNL     1      48.108  18.199  19.020  0.00  0.00    -0.059 C 
ATOM     11  C   UNL     1      48.854  17.604  17.746  0.00  0.00    +0.011 C 
ATOM     12  C   UNL     1      46.870  18.815  18.467  0.00  0.00    +0.042 C 
ATOM     13  C   UNL     1      48.997  19.262  19.537  0.00  0.00    +0.036 C 
ATOM     21  C   UNL     1      49.071  17.998  21.619  0.00  0.00    +0.356 C 
ATOM     22  O   UNL     1      49.976  17.529  22.390  0.00  0.00    -0.451 OA
ATOM     23  C   UNL     1      49.138  19.371  21.065  0.00  0.00    -0.070 C 
ATOM     24  C   UNL     1      50.490  19.992  21.399  0.00  0.00    +0.069 C 
ATOM     25  C   UNL     1      44.768  21.238  20.334  0.00  0.00    +0.284 C 
ATOM     31  O   UNL     1      43.579  20.324  20.403  0.00  0.00    -0.378 OA
ATOM     32  C   UNL     1      43.838  19.170  21.021  0.00  0.00    +0.500 C 
ATOM     33  O   UNL     1      43.532  18.159  20.583  0.00  0.00    -0.420 OA
ATOM     34  C   UNL     1      44.306  19.318  22.504  0.00  0.00    +0.025 C 
ATOM     35  C   UNL     1      45.585  20.180  22.501  0.00  0.00    +0.070 C 
ENDROOT
BRANCH  25  26
ATOM     26  C   UNL     1      44.318  22.536  19.713  0.00  0.00    -0.190 A 
ATOM     27  C   UNL     1      45.151  23.585  19.260  0.00  0.00    -0.049 A 
ATOM     28  C   UNL     1      44.340  24.546  18.780  0.00  0.00    +0.169 A 
ATOM     29  O   UNL     1      43.068  24.136  18.919  0.00  0.00    -0.173 OA
ATOM     30  C   UNL     1      43.050  22.916  19.480  0.00  0.00    +0.202 A 
ENDBRANCH  25  26
BRANCH  13  14
ATOM     14  C   UNL     1      50.494  19.055  18.946  0.00  0.00    +0.242 C 
BRANCH  14  15
ATOM     15  O   UNL     1      50.637  17.716  18.469  0.00  0.00    -0.520 OA
ATOM     16  H   UNL     1      50.368  17.040  19.107  0.00  0.00    +0.382 HD
ENDBRANCH  14  15
BRANCH  14  17
ATOM     17  C   UNL     1      50.723  20.021  17.811  0.00  0.00    +0.459 C 
ATOM     20  O   UNL     1      50.416  21.182  17.937  0.00  0.00    -0.507 OA
BRANCH  17  18
ATOM     18  O   UNL     1      51.267  19.589  16.663  0.00  0.00    -0.359 OA
ATOM     19  C   UNL     1      52.226  20.445  16.039  0.00  0.00    +0.257 C 
ENDBRANCH  17  18
ENDBRANCH  14  17
ENDBRANCH  13  14
TORSDOF 5
ENDMDL
MODEL 4
REMARK VINA RESULT:      -5.7      2.430      6.722
REMARK  Name = ZINC95486132
REMARK  10 active torsions:
REMARK  status: ('A' for Active; 'I' for Inactive)
REMARK    1  A    between atoms: C1_1  and  C2_2
REMARK    2  A    between atoms: C10_12  and  C18_26
REMARK    3  A    between atoms: C10_12  and  C19_27
REMARK    4  A    between atoms: C11_13  and  C15_19
REMARK    5  A    between atoms: C12_15  and  C14_18
REMARK    6  A    between atoms: C15_19  and  C16_21
REMARK    7  A    between atoms: C15_19  and  O4_25
REMARK    8  A    between atoms: C16_21  and  O3_23
REMARK    9  A    between atoms: O3_23  and  C17_24
REMARK   10  A    between atoms: C23_34  and  C24_36
REMARK                            x       y       z     vdW  Elec       q    Type
REMARK                         _______ _______ _______ _____ _____    ______ ____
ROOT
ATOM      1  C   UNL     1      44.241  19.000  22.502  0.00  0.00    +0.035 C 
ATOM      2  C   UNL     1      45.511  18.849  21.700  0.00  0.00    -0.075 C 
ATOM      3  C   UNL     1      46.421  20.084  21.995  0.00  0.00    +0.054 C 
ATOM      4  C   UNL     1      47.718  19.893  21.165  0.00  0.00    +0.032 C 
ATOM      5  C   UNL     1      48.512  18.670  21.726  0.00  0.00    +0.053 C 
ATOM      6  C   UNL     1      47.632  17.428  21.550  0.00  0.00    -0.107 C 
ATOM      7  C   UNL     1      48.062  16.410  21.074  0.00  0.00    -0.007 C 
ATOM      8  C   UNL     1      49.431  16.178  20.664  0.00  0.00    +0.020 C 
ATOM      9  C   UNL     1      49.601  16.355  19.136  0.00  0.00    +0.066 C 
ATOM     10  C   UNL     1      49.427  17.725  18.693  0.00  0.00    -0.059 C 
ATOM     11  C   UNL     1      50.385  17.840  17.427  0.00  0.00    +0.011 C 
ATOM     12  C   UNL     1      48.063  17.966  18.147  0.00  0.00    +0.042 C 
ATOM     13  C   UNL     1      49.808  18.847  19.578  0.00  0.00    +0.036 C 
ATOM     21  C   UNL     1      50.315  17.164  21.267  0.00  0.00    +0.356 C 
ATOM     22  O   UNL     1      51.308  16.866  22.013  0.00  0.00    -0.451 OA
ATOM     23  C   UNL     1      49.849  18.559  21.090  0.00  0.00    -0.070 C 
ATOM     24  C   UNL     1      50.835  19.516  21.752  0.00  0.00    +0.069 C 
ATOM     25  C   UNL     1      45.120  18.793  20.251  0.00  0.00    +0.284 C 
ATOM     31  O   UNL     1      44.389  17.524  19.924  0.00  0.00    -0.378 OA
ATOM     32  C   UNL     1      45.065  16.425  20.262  0.00  0.00    +0.500 C 
ATOM     33  O   UNL     1      45.197  15.542  19.546  0.00  0.00    -0.420 OA
ATOM     34  C   UNL     1      45.392  16.306  21.784  0.00  0.00    +0.025 C 
ATOM     35  C   UNL     1      46.226  17.543  22.175  0.00  0.00    +0.070 C 
ENDROOT
BRANCH  25  26
ATOM     26  C   UNL     1      44.212  19.949  19.921  0.00  0.00    -0.190 A 
ATOM     27  C   UNL     1      44.587  21.307  19.803  0.00  0.00    -0.049 A 
ATOM     28  C   UNL     1      43.471  21.994  19.497  0.00  0.00    +0.169 A 
ATOM     29  O   UNL     1      42.447  21.129  19.424  0.00  0.00    -0.173 OA
ATOM     30  C   UNL     1      42.892  19.887  19.675  0.00  0.00    +0.202 A 
ENDBRANCH  25  26
BRANCH  13  14
ATOM     14  C   UNL     1      51.280  19.389  19.168  0.00  0.00    +0.242 C 
BRANCH  14  15
ATOM     15  O   UNL     1      51.996  18.356  18.488  0.00  0.00    -0.520 OA
ATOM     16  H   UNL     1      52.063  17.530  18.987  0.00  0.00    +0.382 HD
ENDBRANCH  14  15
BRANCH  14  17
ATOM     17  C   UNL     1      51.140  20.584  18.261  0.00  0.00    +0.459 C 
ATOM     20  O   UNL     1      50.131  21.248  18.290  0.00  0.00    -0.507 OA
BRANCH  17  18
ATOM     18  O   UNL     1      52.135  20.911  17.422  0.00  0.00    -0.359 OA
ATOM     19  C   UNL     1      51.816  20.972  16.030  0.00  0.00    +0.257 C 
ENDBRANCH  17  18
ENDBRANCH  14  17
ENDBRANCH  13  14
TORSDOF 5
ENDMDL
MODEL 5
REMARK VINA RESULT:      -5.7      2.872      5.662
REMARK  Name = ZINC95486132
REMARK  10 active torsions:
REMARK  status: ('A' for Active; 'I' for Inactive)
REMARK    1  A    between atoms: C1_1  and  C2_2
REMARK    2  A    between atoms: C10_12  and  C18_26
REMARK    3  A    between atoms: C10_12  and  C19_27
REMARK    4  A    between atoms: C11_13  and  C15_19
REMARK    5  A    between atoms: C12_15  and  C14_18
REMARK    6  A    between atoms: C15_19  and  C16_21
REMARK    7  A    between atoms: C15_19  and  O4_25
REMARK    8  A    between atoms: C16_21  and  O3_23
REMARK    9  A    between atoms: O3_23  and  C17_24
REMARK   10  A    between atoms: C23_34  and  C24_36
REMARK                            x       y       z     vdW  Elec       q    Type
REMARK                         _______ _______ _______ _____ _____    ______ ____
ROOT
ATOM      1  C   UNL     1      47.713  15.084  17.112  0.00  0.00    +0.035 C 
ATOM      2  C   UNL     1      47.178  16.175  18.008  0.00  0.00    -0.075 C 
ATOM      3  C   UNL     1      46.614  17.316  17.102  0.00  0.00    +0.054 C 
ATOM      4  C   UNL     1      46.066  18.413  18.051  0.00  0.00    +0.032 C 
ATOM      5  C   UNL     1      44.820  17.858  18.812  0.00  0.00    +0.053 C 
ATOM      6  C   UNL     1      45.288  16.669  19.659  0.00  0.00    -0.107 C 
ATOM      7  C   UNL     1      44.987  16.560  20.818  0.00  0.00    -0.007 C 
ATOM      8  C   UNL     1      44.124  17.457  21.558  0.00  0.00    +0.020 C 
ATOM      9  C   UNL     1      44.944  18.464  22.401  0.00  0.00    +0.066 C 
ATOM     10  C   UNL     1      45.681  19.419  21.597  0.00  0.00    -0.059 C 
ATOM     11  C   UNL     1      45.728  20.725  22.505  0.00  0.00    +0.011 C 
ATOM     12  C   UNL     1      47.110  19.030  21.438  0.00  0.00    +0.042 C 
ATOM     13  C   UNL     1      45.146  19.865  20.293  0.00  0.00    +0.036 C 
ATOM     21  C   UNL     1      43.336  18.271  20.645  0.00  0.00    +0.356 C 
ATOM     22  O   UNL     1      42.059  18.298  20.639  0.00  0.00    -0.451 OA
ATOM     23  C   UNL     1      44.147  18.927  19.592  0.00  0.00    -0.070 C 
ATOM     24  C   UNL     1      43.237  19.753  18.688  0.00  0.00    +0.069 C 
ATOM     25  C   UNL     1      48.322  16.662  18.850  0.00  0.00    +0.284 C 
ATOM     31  O   UNL     1      48.759  15.625  19.843  0.00  0.00    -0.378 OA
ATOM     32  C   UNL     1      47.766  15.190  20.621  0.00  0.00    +0.500 C 
ATOM     33  O   UNL     1      47.869  15.109  21.758  0.00  0.00    -0.420 OA
ATOM     34  C   UNL     1      46.584  14.521  19.852  0.00  0.00    +0.025 C 
ATOM     35  C   UNL     1      46.023  15.567  18.867  0.00  0.00    +0.070 C 
ENDROOT
BRANCH  25  26
ATOM     26  C   UNL     1      49.502  16.988  17.971  0.00  0.00    -0.190 A 
ATOM     27  C   UNL     1      50.527  16.099  17.574  0.00  0.00    -0.049 A 
ATOM     28  C   UNL     1      51.372  16.801  16.797  0.00  0.00    +0.169 A 
ATOM     29  O   UNL     1      50.916  18.061  16.704  0.00  0.00    -0.173 OA
ATOM     30  C   UNL     1      49.779  18.178  17.411  0.00  0.00    +0.202 A 
ENDBRANCH  25  26
BRANCH  13  14
ATOM     14  C   UNL     1      44.397  21.292  20.471  0.00  0.00    +0.242 C 
BRANCH  14  15
ATOM     15  O   UNL     1      44.204  21.559  21.861  0.00  0.00    -0.520 OA
ATOM     16  H   UNL     1      44.803  22.229  22.220  0.00  0.00    +0.382 HD
ENDBRANCH  14  15
BRANCH  14  17
ATOM     17  C   UNL     1      45.242  22.382  19.862  0.00  0.00    +0.459 C 
ATOM     20  O   UNL     1      46.189  22.094  19.168  0.00  0.00    -0.507 OA
BRANCH  17  18
ATOM     18  O   UNL     1      44.944  23.670  20.091  0.00  0.00    -0.359 OA
ATOM     19  C   UNL     1      44.562  24.457  18.962  0.00  0.00    +0.257 C 
ENDBRANCH  17  18
ENDBRANCH  14  17
ENDBRANCH  13  14
TORSDOF 5
ENDMDL
MODEL 6
REMARK VINA RESULT:      -5.7      1.960      6.170
REMARK  Name = ZINC95486132
REMARK  10 active torsions:
REMARK  status: ('A' for Active; 'I' for Inactive)
REMARK    1  A    between atoms: C1_1  and  C2_2
REMARK    2  A    between atoms: C10_12  and  C18_26
REMARK    3  A    between atoms: C10_12  and  C19_27
REMARK    4  A    between atoms: C11_13  and  C15_19
REMARK    5  A    between atoms: C12_15  and  C14_18
REMARK    6  A    between atoms: C15_19  and  C16_21
REMARK    7  A    between atoms: C15_19  and  O4_25
REMARK    8  A    between atoms: C16_21  and  O3_23
REMARK    9  A    between atoms: O3_23  and  C17_24
REMARK   10  A    between atoms: C23_34  and  C24_36
REMARK                            x       y       z     vdW  Elec       q    Type
REMARK                         _______ _______ _______ _____ _____    ______ ____
ROOT
ATOM      1  C   UNL     1      45.237  19.651  19.305  0.00  0.00    +0.035 C 
ATOM      2  C   UNL     1      46.678  19.207  19.391  0.00  0.00    -0.075 C 
ATOM      3  C   UNL     1      46.935  18.165  18.256  0.00  0.00    +0.054 C 
ATOM      4  C   UNL     1      48.422  17.738  18.368  0.00  0.00    +0.032 C 
ATOM      5  C   UNL     1      49.334  18.954  18.006  0.00  0.00    +0.053 C 
ATOM      6  C   UNL     1      49.064  20.057  19.035  0.00  0.00    -0.107 C 
ATOM      7  C   UNL     1      49.959  20.636  19.592  0.00  0.00    -0.007 C 
ATOM      8  C   UNL     1      51.373  20.442  19.352  0.00  0.00    +0.020 C 
ATOM      9  C   UNL     1      52.005  19.513  20.416  0.00  0.00    +0.066 C 
ATOM     10  C   UNL     1      51.538  18.142  20.332  0.00  0.00    -0.059 C 
ATOM     11  C   UNL     1      52.781  17.285  20.836  0.00  0.00    +0.011 C 
ATOM     12  C   UNL     1      50.466  17.856  21.326  0.00  0.00    +0.042 C 
ATOM     13  C   UNL     1      51.164  17.562  19.025  0.00  0.00    +0.036 C 
ATOM     21  C   UNL     1      51.583  19.769  18.079  0.00  0.00    +0.356 C 
ATOM     22  O   UNL     1      52.282  20.254  17.125  0.00  0.00    -0.451 OA
ATOM     23  C   UNL     1      50.759  18.548  17.915  0.00  0.00    -0.070 C 
ATOM     24  C   UNL     1      51.047  17.916  16.557  0.00  0.00    +0.069 C 
ATOM     25  C   UNL     1      46.875  18.596  20.749  0.00  0.00    +0.284 C 
ATOM     31  O   UNL     1      46.797  19.626  21.837  0.00  0.00    -0.378 OA
ATOM     32  C   UNL     1      47.644  20.642  21.661  0.00  0.00    +0.500 C 
ATOM     33  O   UNL     1      48.320  21.029  22.500  0.00  0.00    -0.420 OA
ATOM     34  C   UNL     1      47.425  21.449  20.342  0.00  0.00    +0.025 C 
ATOM     35  C   UNL     1      47.580  20.463  19.167  0.00  0.00    +0.070 C 
ENDROOT
BRANCH  25  26
ATOM     26  C   UNL     1      45.805  17.567  21.008  0.00  0.00    -0.190 A 
ATOM     27  C   UNL     1      44.625  17.751  21.765  0.00  0.00    -0.049 A 
ATOM     28  C   UNL     1      43.958  16.583  21.737  0.00  0.00    +0.169 A 
ATOM     29  O   UNL     1      44.667  15.707  21.007  0.00  0.00    -0.173 OA
ATOM     30  C   UNL     1      45.786  16.300  20.558  0.00  0.00    +0.202 A 
ENDBRANCH  25  26
BRANCH  13  14
ATOM     14  C   UNL     1      52.400  16.688  18.442  0.00  0.00    +0.242 C 
BRANCH  14  15
ATOM     15  O   UNL     1      53.631  17.216  18.938  0.00  0.00    -0.520 OA
ATOM     16  H   UNL     1      54.340  17.245  18.281  0.00  0.00    +0.382 HD
ENDBRANCH  14  15
BRANCH  14  17
ATOM     17  C   UNL     1      52.252  15.255  18.884  0.00  0.00    +0.459 C 
ATOM     20  O   UNL     1      53.231  14.556  18.999  0.00  0.00    -0.507 OA
BRANCH  17  18
ATOM     18  O   UNL     1      51.034  14.755  19.147  0.00  0.00    -0.359 OA
ATOM     19  C   UNL     1      50.866  14.083  20.396  0.00  0.00    +0.257 C 
ENDBRANCH  17  18
ENDBRANCH  14  17
ENDBRANCH  13  14
TORSDOF 5
ENDMDL
MODEL 7
REMARK VINA RESULT:      -5.4      2.363      6.701
REMARK  Name = ZINC95486132
REMARK  10 active torsions:
REMARK  status: ('A' for Active; 'I' for Inactive)
REMARK    1  A    between atoms: C1_1  and  C2_2
REMARK    2  A    between atoms: C10_12  and  C18_26
REMARK    3  A    between atoms: C10_12  and  C19_27
REMARK    4  A    between atoms: C11_13  and  C15_19
REMARK    5  A    between atoms: C12_15  and  C14_18
REMARK    6  A    between atoms: C15_19  and  C16_21
REMARK    7  A    between atoms: C15_19  and  O4_25
REMARK    8  A    between atoms: C16_21  and  O3_23
REMARK    9  A    between atoms: O3_23  and  C17_24
REMARK   10  A    between atoms: C23_34  and  C24_36
REMARK                            x       y       z     vdW  Elec       q    Type
REMARK                         _______ _______ _______ _____ _____    ______ ____
ROOT
ATOM      1  C   UNL     1      46.027  12.949  17.312  0.00  0.00    +0.035 C 
ATOM      2  C   UNL     1      46.567  14.195  17.971  0.00  0.00    -0.075 C 
ATOM      3  C   UNL     1      46.628  15.326  16.895  0.00  0.00    +0.054 C 
ATOM      4  C   UNL     1      47.177  16.591  17.606  0.00  0.00    +0.032 C 
ATOM      5  C   UNL     1      46.127  17.091  18.649  0.00  0.00    +0.053 C 
ATOM      6  C   UNL     1      45.950  15.982  19.693  0.00  0.00    -0.107 C 
ATOM      7  C   UNL     1      45.976  16.214  20.873  0.00  0.00    -0.007 C 
ATOM      8  C   UNL     1      46.113  17.522  21.477  0.00  0.00    +0.020 C 
ATOM      9  C   UNL     1      47.572  17.793  21.917  0.00  0.00    +0.066 C 
ATOM     10  C   UNL     1      48.492  17.925  20.803  0.00  0.00    -0.059 C 
ATOM     11  C   UNL     1      49.594  18.941  21.339  0.00  0.00    +0.011 C 
ATOM     12  C   UNL     1      49.245  16.665  20.549  0.00  0.00    +0.042 C 
ATOM     13  C   UNL     1      48.028  18.489  19.517  0.00  0.00    +0.036 C 
ATOM     21  C   UNL     1      45.803  18.563  20.508  0.00  0.00    +0.356 C 
ATOM     22  O   UNL     1      44.889  19.440  20.674  0.00  0.00    -0.451 OA
ATOM     23  C   UNL     1      46.521  18.403  19.222  0.00  0.00    -0.070 C 
ATOM     24  C   UNL     1      46.133  19.534  18.275  0.00  0.00    +0.069 C 
ATOM     25  C   UNL     1      47.935  13.865  18.495  0.00  0.00    +0.284 C 
ATOM     31  O   UNL     1      47.871  12.904  19.645  0.00  0.00    -0.378 OA
ATOM     32  C   UNL     1      47.085  13.324  20.639  0.00  0.00    +0.500 C 
ATOM     33  O   UNL     1      47.418  13.303  21.733  0.00  0.00    -0.420 OA
ATOM     34  C   UNL     1      45.594  13.552  20.236  0.00  0.00    +0.025 C 
ATOM     35  C   UNL     1      45.576  14.604  19.108  0.00  0.00    +0.070 C 
ENDROOT
BRANCH  25  26
ATOM     26  C   UNL     1      48.761  13.230  17.406  0.00  0.00    -0.190 A 
ATOM     27  C   UNL     1      49.439  13.902  16.363  0.00  0.00    -0.049 A 
ATOM     28  C   UNL     1      50.048  12.958  15.622  0.00  0.00    +0.169 A 
ATOM     29  O   UNL     1      49.776  11.757  16.159  0.00  0.00    -0.173 OA
ATOM     30  C   UNL     1      49.000  11.917  17.244  0.00  0.00    +0.202 A 
ENDBRANCH  25  26
BRANCH  13  14
ATOM     14  C   UNL     1      48.430  20.058  19.434  0.00  0.00    +0.242 C 
BRANCH  14  15
ATOM     15  O   UNL     1      48.551  20.589  20.755  0.00  0.00    -0.520 OA
ATOM     16  H   UNL     1      48.862  19.949  21.409  0.00  0.00    +0.382 HD
ENDBRANCH  14  15
BRANCH  14  17
ATOM     17  C   UNL     1      49.744  20.202  18.711  0.00  0.00    +0.459 C 
ATOM     20  O   UNL     1      50.381  21.224  18.814  0.00  0.00    -0.507 OA
BRANCH  17  18
ATOM     18  O   UNL     1      50.207  19.196  17.953  0.00  0.00    -0.359 OA
ATOM     19  C   UNL     1      51.577  18.829  18.128  0.00  0.00    +0.257 C 
ENDBRANCH  17  18
ENDBRANCH  14  17
ENDBRANCH  13  14
TORSDOF 5
ENDMDL
MODEL 8
REMARK VINA RESULT:      -5.3      2.812      5.579
REMARK  Name = ZINC95486132
REMARK  10 active torsions:
REMARK  status: ('A' for Active; 'I' for Inactive)
REMARK    1  A    between atoms: C1_1  and  C2_2
REMARK    2  A    between atoms: C10_12  and  C18_26
REMARK    3  A    between atoms: C10_12  and  C19_27
REMARK    4  A    between atoms: C11_13  and  C15_19
REMARK    5  A    between atoms: C12_15  and  C14_18
REMARK    6  A    between atoms: C15_19  and  C16_21
REMARK    7  A    between atoms: C15_19  and  O4_25
REMARK    8  A    between atoms: C16_21  and  O3_23
REMARK    9  A    between atoms: O3_23  and  C17_24
REMARK   10  A    between atoms: C23_34  and  C24_36
REMARK                            x       y       z     vdW  Elec       q    Type
REMARK                         _______ _______ _______ _____ _____    ______ ____
ROOT
ATOM      1  C   UNL     1      52.184  19.009  19.642  0.00  0.00    +0.035 C 
ATOM      2  C   UNL     1      51.340  17.880  19.104  0.00  0.00    -0.075 C 
ATOM      3  C   UNL     1      52.284  16.872  18.375  0.00  0.00    +0.054 C 
ATOM      4  C   UNL     1      51.388  15.723  17.843  0.00  0.00    +0.032 C 
ATOM      5  C   UNL     1      50.808  14.921  19.052  0.00  0.00    +0.053 C 
ATOM      6  C   UNL     1      49.936  15.883  19.868  0.00  0.00    -0.107 C 
ATOM      7  C   UNL     1      48.829  15.582  20.228  0.00  0.00    -0.007 C 
ATOM      8  C   UNL     1      48.186  14.302  20.015  0.00  0.00    +0.020 C 
ATOM      9  C   UNL     1      47.221  14.348  18.806  0.00  0.00    +0.066 C 
ATOM     10  C   UNL     1      47.900  14.511  17.535  0.00  0.00    -0.059 C 
ATOM     11  C   UNL     1      46.962  13.744  16.502  0.00  0.00    +0.011 C 
ATOM     12  C   UNL     1      47.881  15.926  17.070  0.00  0.00    +0.042 C 
ATOM     13  C   UNL     1      49.251  13.946  17.335  0.00  0.00    +0.036 C 
ATOM     21  C   UNL     1      49.175  13.288  19.680  0.00  0.00    +0.356 C 
ATOM     22  O   UNL     1      49.346  12.214  20.350  0.00  0.00    -0.451 OA
ATOM     23  C   UNL     1      50.098  13.700  18.596  0.00  0.00    -0.070 C 
ATOM     24  C   UNL     1      51.093  12.578  18.318  0.00  0.00    +0.069 C 
ATOM     25  C   UNL     1      50.345  18.481  18.153  0.00  0.00    +0.284 C 
ATOM     31  O   UNL     1      49.328  19.319  18.871  0.00  0.00    -0.378 OA
ATOM     32  C   UNL     1      48.696  18.660  19.844  0.00  0.00    +0.500 C 
ATOM     33  O   UNL     1      47.558  18.681  19.960  0.00  0.00    -0.420 OA
ATOM     34  C   UNL     1      49.628  18.120  20.975  0.00  0.00    +0.025 C 
ATOM     35  C   UNL     1      50.652  17.174  20.317  0.00  0.00    +0.070 C 
ENDROOT
BRANCH  25  26
ATOM     26  C   UNL     1      51.054  19.365  17.160  0.00  0.00    -0.190 A 
ATOM     27  C   UNL     1      51.155  20.774  17.208  0.00  0.00    -0.049 A 
ATOM     28  C   UNL     1      51.871  21.151  16.133  0.00  0.00    +0.169 A 
ATOM     29  O   UNL     1      52.207  20.051  15.441  0.00  0.00    -0.173 OA
ATOM     30  C   UNL     1      51.719  18.964  16.062  0.00  0.00    +0.202 A 
ENDBRANCH  25  26
BRANCH  13  14
ATOM     14  C   UNL     1      49.138  12.523  16.566  0.00  0.00    +0.242 C 
BRANCH  14  15
ATOM     15  O   UNL     1      47.790  12.053  16.627  0.00  0.00    -0.520 OA
ATOM     16  H   UNL     1      47.699  11.100  16.490  0.00  0.00    +0.382 HD
ENDBRANCH  14  15
BRANCH  14  17
ATOM     17  C   UNL     1      49.545  12.697  15.125  0.00  0.00    +0.459 C 
ATOM     20  O   UNL     1      48.967  12.088  14.257  0.00  0.00    -0.507 OA
BRANCH  17  18
ATOM     18  O   UNL     1      50.549  13.530  14.807  0.00  0.00    -0.359 OA
ATOM     19  C   UNL     1      51.825  12.939  14.556  0.00  0.00    +0.257 C 
ENDBRANCH  17  18
ENDBRANCH  14  17
ENDBRANCH  13  14
TORSDOF 5
ENDMDL
MODEL 9
REMARK VINA RESULT:      -5.3      1.535      6.280
REMARK  Name = ZINC95486132
REMARK  10 active torsions:
REMARK  status: ('A' for Active; 'I' for Inactive)
REMARK    1  A    between atoms: C1_1  and  C2_2
REMARK    2  A    between atoms: C10_12  and  C18_26
REMARK    3  A    between atoms: C10_12  and  C19_27
REMARK    4  A    between atoms: C11_13  and  C15_19
REMARK    5  A    between atoms: C12_15  and  C14_18
REMARK    6  A    between atoms: C15_19  and  C16_21
REMARK    7  A    between atoms: C15_19  and  O4_25
REMARK    8  A    between atoms: C16_21  and  O3_23
REMARK    9  A    between atoms: O3_23  and  C17_24
REMARK   10  A    between atoms: C23_34  and  C24_36
REMARK                            x       y       z     vdW  Elec       q    Type
REMARK                         _______ _______ _______ _____ _____    ______ ____
ROOT
ATOM      1  C   UNL     1      45.694  15.693  21.080  0.00  0.00    +0.035 C 
ATOM      2  C   UNL     1      46.853  16.496  20.542  0.00  0.00    -0.075 C 
ATOM      3  C   UNL     1      47.783  16.870  21.740  0.00  0.00    +0.054 C 
ATOM      4  C   UNL     1      48.965  17.685  21.154  0.00  0.00    +0.032 C 
ATOM      5  C   UNL     1      49.834  16.752  20.251  0.00  0.00    +0.053 C 
ATOM      6  C   UNL     1      48.950  16.273  19.095  0.00  0.00    -0.107 C 
ATOM      7  C   UNL     1      49.325  16.313  17.953  0.00  0.00    -0.007 C 
ATOM      8  C   UNL     1      50.632  16.743  17.504  0.00  0.00    +0.020 C 
ATOM      9  C   UNL     1      50.605  18.208  17.004  0.00  0.00    +0.066 C 
ATOM     10  C   UNL     1      50.365  19.171  18.061  0.00  0.00    -0.059 C 
ATOM     11  C   UNL     1      51.152  20.468  17.580  0.00  0.00    +0.011 C 
ATOM     12  C   UNL     1      48.940  19.602  18.109  0.00  0.00    +0.042 C 
ATOM     13  C   UNL     1      50.845  18.905  19.434  0.00  0.00    +0.036 C 
ATOM     21  C   UNL     1      51.577  16.731  18.610  0.00  0.00    +0.356 C 
ATOM     22  O   UNL     1      52.660  16.053  18.613  0.00  0.00    -0.451 OA
ATOM     23  C   UNL     1      51.080  17.433  19.817  0.00  0.00    -0.070 C 
ATOM     24  C   UNL     1      52.134  17.367  20.917  0.00  0.00    +0.069 C 
ATOM     25  C   UNL     1      46.282  17.723  19.892  0.00  0.00    +0.284 C 
ATOM     31  O   UNL     1      45.526  17.385  18.640  0.00  0.00    -0.378 OA
ATOM     32  C   UNL     1      46.249  16.691  17.760  0.00  0.00    +0.500 C 
ATOM     33  O   UNL     1      46.296  16.969  16.651  0.00  0.00    -0.420 OA
ATOM     34  C   UNL     1      46.768  15.315  18.286  0.00  0.00    +0.025 C 
ATOM     35  C   UNL     1      47.634  15.596  19.532  0.00  0.00    +0.070 C 
ENDROOT
BRANCH  25  26
ATOM     26  C   UNL     1      45.329  18.408  20.837  0.00  0.00    -0.190 A 
ATOM     27  C   UNL     1      43.927  18.234  20.892  0.00  0.00    -0.049 A 
ATOM     28  C   UNL     1      43.474  19.031  21.877  0.00  0.00    +0.169 A 
ATOM     29  O   UNL     1      44.521  19.674  22.418  0.00  0.00    -0.173 OA
ATOM     30  C   UNL     1      45.649  19.296  21.794  0.00  0.00    +0.202 A 
ENDBRANCH  25  26
BRANCH  13  14
ATOM     14  C   UNL     1      52.249  19.680  19.679  0.00  0.00    +0.242 C 
BRANCH  14  15
ATOM     15  O   UNL     1      52.887  19.919  18.424  0.00  0.00    -0.520 OA
ATOM     16  H   UNL     1      53.689  20.456  18.487  0.00  0.00    +0.382 HD
ENDBRANCH  14  15
BRANCH  14  17
ATOM     17  C   UNL     1      51.982  20.994  20.367  0.00  0.00    +0.459 C 
ATOM     20  O   UNL     1      52.780  21.896  20.274  0.00  0.00    -0.507 OA
BRANCH  17  18
ATOM     18  O   UNL     1      50.859  21.162  21.083  0.00  0.00    -0.359 OA
ATOM     19  C   UNL     1      50.983  21.100  22.505  0.00  0.00    +0.257 C 
ENDBRANCH  17  18
ENDBRANCH  14  17
ENDBRANCH  13  14
TORSDOF 5
ENDMDL
