MODEL 1
REMARK VINA RESULT:      -6.6      0.000      0.000
REMARK  Name = ZINC95485900
REMARK  9 active torsions:
REMARK  status: ('A' for Active; 'I' for Inactive)
REMARK    1  A    between atoms: C1_1  and  C2_2
REMARK    2  A    between atoms: C7_10  and  C8_11
REMARK    3  A    between atoms: C7_10  and  O1_12
REMARK    4  A    between atoms: C13_18  and  C29_42
REMARK    5  A    between atoms: C15_20  and  O5_41
REMARK    6  A    between atoms: C16_22  and  O4_40
REMARK    7  A    between atoms: C17_24  and  C27_38
REMARK    8  A    between atoms: C17_24  and  C28_39
REMARK    9  A    between atoms: C25_33  and  C26_35
REMARK                            x       y       z     vdW  Elec       q    Type
REMARK                         _______ _______ _______ _____ _____    ______ ____
ROOT
ATOM      1  C   UNL     1      49.460  20.724  20.936  0.00  0.00    +0.025 C 
ATOM      2  C   UNL     1      48.735  20.681  19.588  0.00  0.00    -0.009 C 
ATOM      3  C   UNL     1      49.630  20.028  18.536  0.00  0.00    +0.032 C 
ATOM      4  C   UNL     1      49.778  18.535  18.795  0.00  0.00    +0.026 C 
ATOM      5  C   UNL     1      48.390  17.890  18.778  0.00  0.00    +0.028 C 
ATOM      6  C   UNL     1      48.501  16.396  18.895  0.00  0.00    -0.043 C 
ATOM      7  C   UNL     1      47.403  15.714  19.151  0.00  0.00    -0.091 C 
ATOM      8  C   UNL     1      47.435  14.208  19.287  0.00  0.00    +0.056 C 
ATOM      9  C   UNL     1      48.301  13.663  18.144  0.00  0.00    +0.039 C 
ATOM     10  C   UNL     1      48.276  12.152  18.061  0.00  0.00    -0.030 C 
ATOM     11  C   UNL     1      48.709  11.576  19.424  0.00  0.00    +0.026 C 
ATOM     12  C   UNL     1      46.847  11.664  17.804  0.00  0.00    +0.044 C 
ATOM     13  C   UNL     1      46.418  12.086  16.398  0.00  0.00    +0.144 C 
ATOM     16  C   UNL     1      47.302  11.356  15.389  0.00  0.00    +0.146 C 
ATOM     19  C   UNL     1      48.770  11.750  15.569  0.00  0.00    -0.039 C 
ATOM     20  C   UNL     1      49.595  10.770  14.702  0.00  0.00    +0.023 C 
ATOM     21  C   UNL     1      48.981  13.152  14.999  0.00  0.00    +0.038 C 
ATOM     22  C   UNL     1      49.232  11.622  17.007  0.00  0.00    +0.004 C 
ATOM     23  C   UNL     1      50.653  12.111  17.222  0.00  0.00    +0.022 C 
ATOM     24  C   UNL     1      50.806  13.602  17.450  0.00  0.00    +0.051 C 
ATOM     25  C   UNL     1      49.723  14.189  18.339  0.00  0.00    -0.086 C 
ATOM     26  C   UNL     1      50.132  14.589  19.762  0.00  0.00    +0.014 C 
ATOM     27  C   UNL     1      49.813  15.676  18.717  0.00  0.00    -0.068 C 
ATOM     28  C   UNL     1      51.019  16.474  18.235  0.00  0.00    +0.065 C 
ATOM     29  C   UNL     1      47.551  18.470  19.910  0.00  0.00    +0.004 C 
ATOM     30  C   UNL     1      50.609  17.849  17.706  0.00  0.00    -0.086 C 
ATOM     34  C   UNL     1      47.394  19.979  19.741  0.00  0.00    +0.142 C 
ATOM     37  C   UNL     1      46.508  20.282  18.529  0.00  0.00    +0.006 C 
ENDROOT
BRANCH  30  31
ATOM     31  C   UNL     1      51.848  18.643  17.389  0.00  0.00    +0.503 C 
ATOM     32  O   UNL     1      51.992  19.130  16.280  0.00  0.00    -0.704 OA
ATOM     33  O   UNL     1      52.707  18.799  18.240  0.00  0.00    -0.698 OA
ENDBRANCH  30  31
BRANCH  13  14
ATOM     14  O   UNL     1      45.051  11.715  16.189  0.00  0.00    -0.567 OA
ATOM     15  H   UNL     1      44.434  12.121  16.813  0.00  0.00    +0.373 HD
ENDBRANCH  13  14
BRANCH  16  17
ATOM     17  O   UNL     1      46.885  11.691  14.063  0.00  0.00    -0.558 OA
ATOM     18  H   UNL     1      46.115  12.274  14.028  0.00  0.00    +0.370 HD
ENDBRANCH  16  17
BRANCH  34  35
ATOM     35  O   UNL     1      46.739  20.500  20.911  0.00  0.00    -0.565 OA
ATOM     36  H   UNL     1      46.868  19.963  21.705  0.00  0.00    +0.366 HD
ENDBRANCH  34  35
TORSDOF 4
ENDMDL
MODEL 2
REMARK VINA RESULT:      -6.4      2.232      3.347
REMARK  Name = ZINC95485900
REMARK  9 active torsions:
REMARK  status: ('A' for Active; 'I' for Inactive)
REMARK    1  A    between atoms: C1_1  and  C2_2
REMARK    2  A    between atoms: C7_10  and  C8_11
REMARK    3  A    between atoms: C7_10  and  O1_12
REMARK    4  A    between atoms: C13_18  and  C29_42
REMARK    5  A    between atoms: C15_20  and  O5_41
REMARK    6  A    between atoms: C16_22  and  O4_40
REMARK    7  A    between atoms: C17_24  and  C27_38
REMARK    8  A    between atoms: C17_24  and  C28_39
REMARK    9  A    between atoms: C25_33  and  C26_35
REMARK                            x       y       z     vdW  Elec       q    Type
REMARK                         _______ _______ _______ _____ _____    ______ ____
ROOT
ATOM      1  C   UNL     1      51.883  21.443  19.352  0.00  0.00    +0.025 C 
ATOM      2  C   UNL     1      52.534  20.544  18.298  0.00  0.00    -0.009 C 
ATOM      3  C   UNL     1      52.901  19.196  18.918  0.00  0.00    +0.032 C 
ATOM      4  C   UNL     1      51.653  18.377  19.218  0.00  0.00    +0.026 C 
ATOM      5  C   UNL     1      50.876  18.163  17.917  0.00  0.00    +0.028 C 
ATOM      6  C   UNL     1      49.708  17.245  18.144  0.00  0.00    -0.043 C 
ATOM      7  C   UNL     1      48.796  17.161  17.197  0.00  0.00    -0.091 C 
ATOM      8  C   UNL     1      47.590  16.261  17.355  0.00  0.00    +0.056 C 
ATOM      9  C   UNL     1      48.087  14.923  17.915  0.00  0.00    +0.039 C 
ATOM     10  C   UNL     1      47.003  13.868  17.959  0.00  0.00    -0.030 C 
ATOM     11  C   UNL     1      45.813  14.417  18.774  0.00  0.00    +0.026 C 
ATOM     12  C   UNL     1      46.483  13.589  16.547  0.00  0.00    +0.044 C 
ATOM     13  C   UNL     1      47.584  12.906  15.733  0.00  0.00    +0.144 C 
ATOM     16  C   UNL     1      47.862  11.541  16.359  0.00  0.00    +0.146 C 
ATOM     19  C   UNL     1      48.368  11.695  17.795  0.00  0.00    -0.039 C 
ATOM     20  C   UNL     1      48.358  10.278  18.416  0.00  0.00    +0.023 C 
ATOM     21  C   UNL     1      49.820  12.168  17.762  0.00  0.00    +0.038 C 
ATOM     22  C   UNL     1      47.475  12.590  18.631  0.00  0.00    +0.004 C 
ATOM     23  C   UNL     1      48.020  12.840  20.025  0.00  0.00    +0.022 C 
ATOM     24  C   UNL     1      49.026  13.967  20.144  0.00  0.00    +0.051 C 
ATOM     25  C   UNL     1      48.672  15.182  19.304  0.00  0.00    -0.086 C 
ATOM     26  C   UNL     1      48.172  16.423  20.053  0.00  0.00    +0.014 C 
ATOM     27  C   UNL     1      49.568  16.426  19.402  0.00  0.00    -0.068 C 
ATOM     28  C   UNL     1      50.733  16.404  20.386  0.00  0.00    +0.065 C 
ATOM     29  C   UNL     1      50.417  19.513  17.377  0.00  0.00    +0.004 C 
ATOM     30  C   UNL     1      52.003  16.990  19.768  0.00  0.00    -0.086 C 
ATOM     34  C   UNL     1      51.618  20.410  17.091  0.00  0.00    +0.142 C 
ATOM     37  C   UNL     1      52.408  19.865  15.897  0.00  0.00    +0.006 C 
ENDROOT
BRANCH  30  31
ATOM     31  C   UNL     1      53.069  17.081  20.827  0.00  0.00    +0.503 C 
ATOM     32  O   UNL     1      54.124  16.488  20.682  0.00  0.00    -0.704 OA
ATOM     33  O   UNL     1      52.876  17.746  21.831  0.00  0.00    -0.698 OA
ENDBRANCH  30  31
BRANCH  13  14
ATOM     14  O   UNL     1      47.136  12.730  14.385  0.00  0.00    -0.567 OA
ATOM     15  H   UNL     1      46.985  13.559  13.910  0.00  0.00    +0.373 HD
ENDBRANCH  13  14
BRANCH  16  17
ATOM     17  O   UNL     1      48.851  10.857  15.584  0.00  0.00    -0.558 OA
ATOM     18  H   UNL     1      49.755  11.159  15.745  0.00  0.00    +0.370 HD
ENDBRANCH  16  17
BRANCH  34  35
ATOM     35  O   UNL     1      51.132  21.719  16.741  0.00  0.00    -0.565 OA
ATOM     36  H   UNL     1      50.169  21.781  16.697  0.00  0.00    +0.366 HD
ENDBRANCH  34  35
TORSDOF 4
ENDMDL
MODEL 3
REMARK VINA RESULT:      -6.2      2.745      8.049
REMARK  Name = ZINC95485900
REMARK  9 active torsions:
REMARK  status: ('A' for Active; 'I' for Inactive)
REMARK    1  A    between atoms: C1_1  and  C2_2
REMARK    2  A    between atoms: C7_10  and  C8_11
REMARK    3  A    between atoms: C7_10  and  O1_12
REMARK    4  A    between atoms: C13_18  and  C29_42
REMARK    5  A    between atoms: C15_20  and  O5_41
REMARK    6  A    between atoms: C16_22  and  O4_40
REMARK    7  A    between atoms: C17_24  and  C27_38
REMARK    8  A    between atoms: C17_24  and  C28_39
REMARK    9  A    between atoms: C25_33  and  C26_35
REMARK                            x       y       z     vdW  Elec       q    Type
REMARK                         _______ _______ _______ _____ _____    ______ ____
ROOT
ATOM      1  C   UNL     1      49.468  11.561  17.193  0.00  0.00    +0.025 C 
ATOM      2  C   UNL     1      47.968  11.499  17.489  0.00  0.00    -0.009 C 
ATOM      3  C   UNL     1      47.699  11.957  18.921  0.00  0.00    +0.032 C 
ATOM      4  C   UNL     1      47.927  13.456  19.066  0.00  0.00    +0.026 C 
ATOM      5  C   UNL     1      47.001  14.194  18.096  0.00  0.00    +0.028 C 
ATOM      6  C   UNL     1      47.096  15.679  18.301  0.00  0.00    -0.043 C 
ATOM      7  C   UNL     1      46.564  16.464  17.387  0.00  0.00    -0.091 C 
ATOM      8  C   UNL     1      46.623  17.969  17.523  0.00  0.00    +0.056 C 
ATOM      9  C   UNL     1      46.270  18.313  18.975  0.00  0.00    +0.039 C 
ATOM     10  C   UNL     1      46.124  19.802  19.205  0.00  0.00    -0.030 C 
ATOM     11  C   UNL     1      47.424  20.501  18.757  0.00  0.00    +0.026 C 
ATOM     12  C   UNL     1      44.995  20.359  18.334  0.00  0.00    +0.044 C 
ATOM     13  C   UNL     1      43.658  19.808  18.831  0.00  0.00    +0.144 C 
ATOM     16  C   UNL     1      43.412  20.350  20.238  0.00  0.00    +0.146 C 
ATOM     19  C   UNL     1      44.503  19.874  21.200  0.00  0.00    -0.039 C 
ATOM     20  C   UNL     1      44.317  20.683  22.505  0.00  0.00    +0.023 C 
ATOM     21  C   UNL     1      44.260  18.403  21.538  0.00  0.00    +0.038 C 
ATOM     22  C   UNL     1      45.899  20.134  20.670  0.00  0.00    +0.004 C 
ATOM     23  C   UNL     1      46.990  19.571  21.562  0.00  0.00    +0.022 C 
ATOM     24  C   UNL     1      47.329  18.111  21.342  0.00  0.00    +0.051 C 
ATOM     25  C   UNL     1      47.349  17.712  19.877  0.00  0.00    -0.086 C 
ATOM     26  C   UNL     1      48.722  17.452  19.245  0.00  0.00    +0.014 C 
ATOM     27  C   UNL     1      47.763  16.276  19.514  0.00  0.00    -0.068 C 
ATOM     28  C   UNL     1      48.195  15.342  20.639  0.00  0.00    +0.065 C 
ATOM     29  C   UNL     1      47.364  13.812  16.665  0.00  0.00    +0.004 C 
ATOM     30  C   UNL     1      47.587  13.948  20.476  0.00  0.00    -0.086 C 
ATOM     34  C   UNL     1      47.200  12.309  16.455  0.00  0.00    +0.142 C 
ATOM     37  C   UNL     1      45.716  11.933  16.496  0.00  0.00    +0.006 C 
ENDROOT
BRANCH  30  31
ATOM     31  C   UNL     1      48.167  13.034  21.523  0.00  0.00    +0.503 C 
ATOM     32  O   UNL     1      49.375  12.888  21.603  0.00  0.00    -0.704 OA
ATOM     33  O   UNL     1      47.429  12.439  22.290  0.00  0.00    -0.698 OA
ENDBRANCH  30  31
BRANCH  13  14
ATOM     14  O   UNL     1      42.610  20.251  17.961  0.00  0.00    -0.567 OA
ATOM     15  H   UNL     1      42.671  21.184  17.716  0.00  0.00    +0.373 HD
ENDBRANCH  13  14
BRANCH  16  17
ATOM     17  O   UNL     1      42.141  19.893  20.706  0.00  0.00    -0.558 OA
ATOM     18  H   UNL     1      42.101  19.751  21.662  0.00  0.00    +0.370 HD
ENDBRANCH  16  17
BRANCH  34  35
ATOM     35  O   UNL     1      47.707  11.978  15.149  0.00  0.00    -0.565 OA
ATOM     36  H   UNL     1      47.694  12.715  14.524  0.00  0.00    +0.366 HD
ENDBRANCH  34  35
TORSDOF 4
ENDMDL
MODEL 4
REMARK VINA RESULT:      -6.2      1.906      2.616
REMARK  Name = ZINC95485900
REMARK  9 active torsions:
REMARK  status: ('A' for Active; 'I' for Inactive)
REMARK    1  A    between atoms: C1_1  and  C2_2
REMARK    2  A    between atoms: C7_10  and  C8_11
REMARK    3  A    between atoms: C7_10  and  O1_12
REMARK    4  A    between atoms: C13_18  and  C29_42
REMARK    5  A    between atoms: C15_20  and  O5_41
REMARK    6  A    between atoms: C16_22  and  O4_40
REMARK    7  A    between atoms: C17_24  and  C27_38
REMARK    8  A    between atoms: C17_24  and  C28_39
REMARK    9  A    between atoms: C25_33  and  C26_35
REMARK                            x       y       z     vdW  Elec       q    Type
REMARK                         _______ _______ _______ _____ _____    ______ ____
ROOT
ATOM      1  C   UNL     1      46.103  21.741  22.222  0.00  0.00    +0.025 C 
ATOM      2  C   UNL     1      45.763  21.611  20.736  0.00  0.00    -0.009 C 
ATOM      3  C   UNL     1      47.007  21.201  19.950  0.00  0.00    +0.032 C 
ATOM      4  C   UNL     1      47.392  19.759  20.252  0.00  0.00    +0.026 C 
ATOM      5  C   UNL     1      46.217  18.847  19.889  0.00  0.00    +0.028 C 
ATOM      6  C   UNL     1      46.603  17.403  20.044  0.00  0.00    -0.043 C 
ATOM      7  C   UNL     1      45.642  16.502  20.020  0.00  0.00    -0.091 C 
ATOM      8  C   UNL     1      45.951  15.030  20.173  0.00  0.00    +0.056 C 
ATOM      9  C   UNL     1      47.168  14.722  19.292  0.00  0.00    +0.039 C 
ATOM     10  C   UNL     1      47.478  13.243  19.218  0.00  0.00    -0.030 C 
ATOM     11  C   UNL     1      47.668  12.706  20.652  0.00  0.00    +0.026 C 
ATOM     12  C   UNL     1      46.293  12.486  18.612  0.00  0.00    +0.044 C 
ATOM     13  C   UNL     1      46.150  12.874  17.140  0.00  0.00    +0.144 C 
ATOM     16  C   UNL     1      47.390  12.383  16.395  0.00  0.00    +0.146 C 
ATOM     19  C   UNL     1      48.651  13.059  16.937  0.00  0.00    -0.039 C 
ATOM     20  C   UNL     1      49.851  12.306  16.316  0.00  0.00    +0.023 C 
ATOM     21  C   UNL     1      48.702  14.498  16.426  0.00  0.00    +0.038 C 
ATOM     22  C   UNL     1      48.756  12.965  18.446  0.00  0.00    +0.004 C 
ATOM     23  C   UNL     1      49.945  13.722  19.009  0.00  0.00    +0.022 C 
ATOM     24  C   UNL     1      49.723  15.201  19.255  0.00  0.00    +0.051 C 
ATOM     25  C   UNL     1      48.356  15.516  19.836  0.00  0.00    -0.086 C 
ATOM     26  C   UNL     1      48.305  15.928  21.312  0.00  0.00    +0.014 C 
ATOM     27  C   UNL     1      48.038  16.973  20.211  0.00  0.00    -0.068 C 
ATOM     28  C   UNL     1      49.134  18.019  20.042  0.00  0.00    +0.065 C 
ATOM     29  C   UNL     1      45.021  19.195  20.767  0.00  0.00    +0.004 C 
ATOM     30  C   UNL     1      48.592  19.304  19.415  0.00  0.00    -0.086 C 
ATOM     34  C   UNL     1      44.602  20.646  20.550  0.00  0.00    +0.142 C 
ATOM     37  C   UNL     1      44.003  20.815  19.151  0.00  0.00    +0.006 C 
ENDROOT
BRANCH  30  31
ATOM     31  C   UNL     1      49.678  20.347  19.414  0.00  0.00    +0.503 C 
ATOM     32  O   UNL     1      50.289  20.590  20.441  0.00  0.00    -0.704 OA
ATOM     33  O   UNL     1      49.946  20.949  18.389  0.00  0.00    -0.698 OA
ENDBRANCH  30  31
BRANCH  13  14
ATOM     14  O   UNL     1      44.986  12.243  16.595  0.00  0.00    -0.567 OA
ATOM     15  H   UNL     1      44.348  11.953  17.262  0.00  0.00    +0.373 HD
ENDBRANCH  13  14
BRANCH  16  17
ATOM     17  O   UNL     1      47.256  12.685  15.003  0.00  0.00    -0.558 OA
ATOM     18  H   UNL     1      47.896  12.230  14.439  0.00  0.00    +0.370 HD
ENDBRANCH  16  17
BRANCH  34  35
ATOM     35  O   UNL     1      43.582  20.971  21.512  0.00  0.00    -0.565 OA
ATOM     36  H   UNL     1      42.703  21.090  21.127  0.00  0.00    +0.366 HD
ENDBRANCH  34  35
TORSDOF 4
ENDMDL
MODEL 5
REMARK VINA RESULT:      -6.0      4.388      7.653
REMARK  Name = ZINC95485900
REMARK  9 active torsions:
REMARK  status: ('A' for Active; 'I' for Inactive)
REMARK    1  A    between atoms: C1_1  and  C2_2
REMARK    2  A    between atoms: C7_10  and  C8_11
REMARK    3  A    between atoms: C7_10  and  O1_12
REMARK    4  A    between atoms: C13_18  and  C29_42
REMARK    5  A    between atoms: C15_20  and  O5_41
REMARK    6  A    between atoms: C16_22  and  O4_40
REMARK    7  A    between atoms: C17_24  and  C27_38
REMARK    8  A    between atoms: C17_24  and  C28_39
REMARK    9  A    between atoms: C25_33  and  C26_35
REMARK                            x       y       z     vdW  Elec       q    Type
REMARK                         _______ _______ _______ _____ _____    ______ ____
ROOT
ATOM      1  C   UNL     1      42.116  20.275  18.840  0.00  0.00    +0.025 C 
ATOM      2  C   UNL     1      42.742  20.802  20.133  0.00  0.00    -0.009 C 
ATOM      3  C   UNL     1      43.451  19.667  20.870  0.00  0.00    +0.032 C 
ATOM      4  C   UNL     1      44.711  19.241  20.131  0.00  0.00    +0.026 C 
ATOM      5  C   UNL     1      45.644  20.449  20.005  0.00  0.00    +0.028 C 
ATOM      6  C   UNL     1      46.958  20.040  19.401  0.00  0.00    -0.043 C 
ATOM      7  C   UNL     1      47.771  20.992  18.991  0.00  0.00    -0.091 C 
ATOM      8  C   UNL     1      49.109  20.660  18.369  0.00  0.00    +0.056 C 
ATOM      9  C   UNL     1      49.754  19.565  19.228  0.00  0.00    +0.039 C 
ATOM     10  C   UNL     1      51.178  19.260  18.815  0.00  0.00    -0.030 C 
ATOM     11  C   UNL     1      51.188  18.886  17.318  0.00  0.00    +0.026 C 
ATOM     12  C   UNL     1      52.048  20.510  18.968  0.00  0.00    +0.044 C 
ATOM     13  C   UNL     1      52.193  20.843  20.454  0.00  0.00    +0.144 C 
ATOM     16  C   UNL     1      52.962  19.707  21.124  0.00  0.00    +0.146 C 
ATOM     19  C   UNL     1      52.193  18.389  21.011  0.00  0.00    -0.039 C 
ATOM     20  C   UNL     1      53.164  17.275  21.470  0.00  0.00    +0.023 C 
ATOM     21  C   UNL     1      51.025  18.410  21.997  0.00  0.00    +0.038 C 
ATOM     22  C   UNL     1      51.759  18.091  19.589  0.00  0.00    +0.004 C 
ATOM     23  C   UNL     1      50.903  16.842  19.477  0.00  0.00    +0.022 C 
ATOM     24  C   UNL     1      49.423  17.037  19.741  0.00  0.00    +0.051 C 
ATOM     25  C   UNL     1      48.869  18.320  19.146  0.00  0.00    -0.086 C 
ATOM     26  C   UNL     1      47.968  18.183  17.914  0.00  0.00    +0.014 C 
ATOM     27  C   UNL     1      47.362  18.594  19.270  0.00  0.00    -0.068 C 
ATOM     28  C   UNL     1      46.486  17.533  19.927  0.00  0.00    +0.065 C 
ATOM     29  C   UNL     1      44.963  21.524  19.166  0.00  0.00    +0.004 C 
ATOM     30  C   UNL     1      45.478  18.157  20.895  0.00  0.00    -0.086 C 
ATOM     34  C   UNL     1      43.662  21.974  19.826  0.00  0.00    +0.142 C 
ATOM     37  C   UNL     1      43.967  22.748  21.112  0.00  0.00    +0.006 C 
ENDROOT
BRANCH  30  31
ATOM     31  C   UNL     1      44.547  17.084  21.393  0.00  0.00    +0.503 C 
ATOM     32  O   UNL     1      43.968  17.226  22.457  0.00  0.00    -0.704 OA
ATOM     33  O   UNL     1      44.373  16.073  20.734  0.00  0.00    -0.698 OA
ENDBRANCH  30  31
BRANCH  13  14
ATOM     14  O   UNL     1      52.925  22.064  20.596  0.00  0.00    -0.567 OA
ATOM     15  H   UNL     1      53.702  22.125  20.023  0.00  0.00    +0.373 HD
ENDBRANCH  13  14
BRANCH  16  17
ATOM     17  O   UNL     1      53.159  20.018  22.505  0.00  0.00    -0.558 OA
ATOM     18  H   UNL     1      53.741  20.775  22.660  0.00  0.00    +0.370 HD
ENDBRANCH  16  17
BRANCH  34  35
ATOM     35  O   UNL     1      42.982  22.863  18.923  0.00  0.00    -0.565 OA
ATOM     36  H   UNL     1      42.084  22.584  18.698  0.00  0.00    +0.366 HD
ENDBRANCH  34  35
TORSDOF 4
ENDMDL
MODEL 6
REMARK VINA RESULT:      -5.8      2.296      7.769
REMARK  Name = ZINC95485900
REMARK  9 active torsions:
REMARK  status: ('A' for Active; 'I' for Inactive)
REMARK    1  A    between atoms: C1_1  and  C2_2
REMARK    2  A    between atoms: C7_10  and  C8_11
REMARK    3  A    between atoms: C7_10  and  O1_12
REMARK    4  A    between atoms: C13_18  and  C29_42
REMARK    5  A    between atoms: C15_20  and  O5_41
REMARK    6  A    between atoms: C16_22  and  O4_40
REMARK    7  A    between atoms: C17_24  and  C27_38
REMARK    8  A    between atoms: C17_24  and  C28_39
REMARK    9  A    between atoms: C25_33  and  C26_35
REMARK                            x       y       z     vdW  Elec       q    Type
REMARK                         _______ _______ _______ _____ _____    ______ ____
ROOT
ATOM      1  C   UNL     1      48.785  11.414  15.494  0.00  0.00    +0.025 C 
ATOM      2  C   UNL     1      48.231  11.658  16.899  0.00  0.00    -0.009 C 
ATOM      3  C   UNL     1      49.373  11.975  17.863  0.00  0.00    +0.032 C 
ATOM      4  C   UNL     1      49.961  13.351  17.577  0.00  0.00    +0.026 C 
ATOM      5  C   UNL     1      48.854  14.400  17.710  0.00  0.00    +0.028 C 
ATOM      6  C   UNL     1      49.419  15.785  17.569  0.00  0.00    -0.043 C 
ATOM      7  C   UNL     1      48.574  16.782  17.404  0.00  0.00    -0.091 C 
ATOM      8  C   UNL     1      49.067  18.203  17.251  0.00  0.00    +0.056 C 
ATOM      9  C   UNL     1      50.156  18.428  18.308  0.00  0.00    +0.039 C 
ATOM     10  C   UNL     1      50.616  19.868  18.379  0.00  0.00    -0.030 C 
ATOM     11  C   UNL     1      51.088  20.304  16.977  0.00  0.00    +0.026 C 
ATOM     12  C   UNL     1      49.442  20.776  18.755  0.00  0.00    +0.044 C 
ATOM     13  C   UNL     1      49.024  20.485  20.198  0.00  0.00    +0.144 C 
ATOM     16  C   UNL     1      50.178  20.880  21.117  0.00  0.00    +0.146 C 
ATOM     19  C   UNL     1      51.425  20.048  20.813  0.00  0.00    -0.039 C 
ATOM     20  C   UNL     1      52.589  20.702  21.595  0.00  0.00    +0.023 C 
ATOM     21  C   UNL     1      51.232  18.641  21.376  0.00  0.00    +0.038 C 
ATOM     22  C   UNL     1      51.778  20.050  19.339  0.00  0.00    +0.004 C 
ATOM     23  C   UNL     1      52.948  19.143  19.005  0.00  0.00    +0.022 C 
ATOM     24  C   UNL     1      52.603  17.685  18.778  0.00  0.00    +0.051 C 
ATOM     25  C   UNL     1      51.318  17.484  17.994  0.00  0.00    -0.086 C 
ATOM     26  C   UNL     1      51.455  17.003  16.545  0.00  0.00    +0.014 C 
ATOM     27  C   UNL     1      50.901  16.052  17.624  0.00  0.00    -0.068 C 
ATOM     28  C   UNL     1      51.832  14.906  18.006  0.00  0.00    +0.065 C 
ATOM     29  C   UNL     1      47.780  14.134  16.661  0.00  0.00    +0.004 C 
ATOM     30  C   UNL     1      51.056  13.720  18.582  0.00  0.00    -0.086 C 
ATOM     34  C   UNL     1      47.171  12.748  16.858  0.00  0.00    +0.142 C 
ATOM     37  C   UNL     1      46.343  12.718  18.147  0.00  0.00    +0.006 C 
ENDROOT
BRANCH  30  31
ATOM     31  C   UNL     1      52.004  12.571  18.797  0.00  0.00    +0.503 C 
ATOM     32  O   UNL     1      52.075  12.036  19.890  0.00  0.00    -0.704 OA
ATOM     33  O   UNL     1      52.702  12.176  17.878  0.00  0.00    -0.698 OA
ENDBRANCH  30  31
BRANCH  13  14
ATOM     14  O   UNL     1      47.868  21.263  20.522  0.00  0.00    -0.567 OA
ATOM     15  H   UNL     1      48.051  22.017  21.098  0.00  0.00    +0.373 HD
ENDBRANCH  13  14
BRANCH  16  17
ATOM     17  O   UNL     1      49.793  20.669  22.478  0.00  0.00    -0.558 OA
ATOM     18  H   UNL     1      50.537  20.560  23.086  0.00  0.00    +0.370 HD
ENDBRANCH  16  17
BRANCH  34  35
ATOM     35  O   UNL     1      46.286  12.482  15.755  0.00  0.00    -0.565 OA
ATOM     36  H   UNL     1      46.301  13.161  15.067  0.00  0.00    +0.366 HD
ENDBRANCH  34  35
TORSDOF 4
ENDMDL
MODEL 7
REMARK VINA RESULT:      -5.8      1.636      2.063
REMARK  Name = ZINC95485900
REMARK  9 active torsions:
REMARK  status: ('A' for Active; 'I' for Inactive)
REMARK    1  A    between atoms: C1_1  and  C2_2
REMARK    2  A    between atoms: C7_10  and  C8_11
REMARK    3  A    between atoms: C7_10  and  O1_12
REMARK    4  A    between atoms: C13_18  and  C29_42
REMARK    5  A    between atoms: C15_20  and  O5_41
REMARK    6  A    between atoms: C16_22  and  O4_40
REMARK    7  A    between atoms: C17_24  and  C27_38
REMARK    8  A    between atoms: C17_24  and  C28_39
REMARK    9  A    between atoms: C25_33  and  C26_35
REMARK                            x       y       z     vdW  Elec       q    Type
REMARK                         _______ _______ _______ _____ _____    ______ ____
ROOT
ATOM      1  C   UNL     1      52.339  21.069  19.882  0.00  0.00    +0.025 C 
ATOM      2  C   UNL     1      50.927  21.170  19.299  0.00  0.00    -0.009 C 
ATOM      3  C   UNL     1      50.872  20.473  17.941  0.00  0.00    +0.032 C 
ATOM      4  C   UNL     1      50.975  18.962  18.100  0.00  0.00    +0.026 C 
ATOM      5  C   UNL     1      49.825  18.478  18.987  0.00  0.00    +0.028 C 
ATOM      6  C   UNL     1      49.811  16.977  19.059  0.00  0.00    -0.043 C 
ATOM      7  C   UNL     1      49.052  16.411  19.975  0.00  0.00    -0.091 C 
ATOM      8  C   UNL     1      48.987  14.906  20.112  0.00  0.00    +0.056 C 
ATOM      9  C   UNL     1      48.865  14.322  18.699  0.00  0.00    +0.039 C 
ATOM     10  C   UNL     1      48.617  12.829  18.702  0.00  0.00    -0.030 C 
ATOM     11  C   UNL     1      49.743  12.144  19.502  0.00  0.00    +0.026 C 
ATOM     12  C   UNL     1      47.303  12.516  19.424  0.00  0.00    +0.044 C 
ATOM     13  C   UNL     1      46.135  13.049  18.594  0.00  0.00    +0.144 C 
ATOM     16  C   UNL     1      46.090  12.273  17.279  0.00  0.00    +0.146 C 
ATOM     19  C   UNL     1      47.375  12.492  16.476  0.00  0.00    -0.039 C 
ATOM     20  C   UNL     1      47.344  11.468  15.317  0.00  0.00    +0.023 C 
ATOM     21  C   UNL     1      47.338  13.887  15.853  0.00  0.00    +0.038 C 
ATOM     22  C   UNL     1      48.622  12.245  17.300  0.00  0.00    +0.004 C 
ATOM     23  C   UNL     1      49.904  12.562  16.550  0.00  0.00    +0.022 C 
ATOM     24  C   UNL     1      50.338  14.013  16.579  0.00  0.00    +0.051 C 
ATOM     25  C   UNL     1      50.139  14.675  17.931  0.00  0.00    -0.086 C 
ATOM     26  C   UNL     1      51.398  14.959  18.759  0.00  0.00    +0.014 C 
ATOM     27  C   UNL     1      50.620  16.124  18.116  0.00  0.00    -0.068 C 
ATOM     28  C   UNL     1      51.332  16.803  16.952  0.00  0.00    +0.065 C 
ATOM     29  C   UNL     1      49.966  19.094  20.374  0.00  0.00    +0.004 C 
ATOM     30  C   UNL     1      50.843  18.240  16.755  0.00  0.00    -0.086 C 
ATOM     34  C   UNL     1      49.915  20.617  20.290  0.00  0.00    +0.142 C 
ATOM     37  C   UNL     1      48.505  21.073  19.903  0.00  0.00    +0.006 C 
ENDROOT
BRANCH  30  31
ATOM     31  C   UNL     1      51.685  18.905  15.699  0.00  0.00    +0.503 C 
ATOM     32  O   UNL     1      52.588  18.287  15.162  0.00  0.00    -0.704 OA
ATOM     33  O   UNL     1      51.463  20.061  15.381  0.00  0.00    -0.698 OA
ENDBRANCH  30  31
BRANCH  13  14
ATOM     14  O   UNL     1      44.913  12.844  19.310  0.00  0.00    -0.567 OA
ATOM     15  H   UNL     1      45.000  12.932  20.269  0.00  0.00    +0.373 HD
ENDBRANCH  13  14
BRANCH  16  17
ATOM     17  O   UNL     1      44.972  12.715  16.506  0.00  0.00    -0.558 OA
ATOM     18  H   UNL     1      44.262  13.111  17.030  0.00  0.00    +0.370 HD
ENDBRANCH  16  17
BRANCH  34  35
ATOM     35  O   UNL     1      50.212  21.151  21.593  0.00  0.00    -0.565 OA
ATOM     36  H   UNL     1      50.626  20.517  22.192  0.00  0.00    +0.366 HD
ENDBRANCH  34  35
TORSDOF 4
ENDMDL
MODEL 8
REMARK VINA RESULT:      -5.7      2.493      5.066
REMARK  Name = ZINC95485900
REMARK  9 active torsions:
REMARK  status: ('A' for Active; 'I' for Inactive)
REMARK    1  A    between atoms: C1_1  and  C2_2
REMARK    2  A    between atoms: C7_10  and  C8_11
REMARK    3  A    between atoms: C7_10  and  O1_12
REMARK    4  A    between atoms: C13_18  and  C29_42
REMARK    5  A    between atoms: C15_20  and  O5_41
REMARK    6  A    between atoms: C16_22  and  O4_40
REMARK    7  A    between atoms: C17_24  and  C27_38
REMARK    8  A    between atoms: C17_24  and  C28_39
REMARK    9  A    between atoms: C25_33  and  C26_35
REMARK                            x       y       z     vdW  Elec       q    Type
REMARK                         _______ _______ _______ _____ _____    ______ ____
ROOT
ATOM      1  C   UNL     1      50.578  21.799  16.682  0.00  0.00    +0.025 C 
ATOM      2  C   UNL     1      51.334  21.134  17.834  0.00  0.00    -0.009 C 
ATOM      3  C   UNL     1      50.407  20.960  19.035  0.00  0.00    +0.032 C 
ATOM      4  C   UNL     1      49.360  19.888  18.764  0.00  0.00    +0.026 C 
ATOM      5  C   UNL     1      50.071  18.568  18.453  0.00  0.00    +0.028 C 
ATOM      6  C   UNL     1      49.075  17.452  18.312  0.00  0.00    -0.043 C 
ATOM      7  C   UNL     1      49.493  16.314  17.797  0.00  0.00    -0.091 C 
ATOM      8  C   UNL     1      48.548  15.146  17.620  0.00  0.00    +0.056 C 
ATOM      9  C   UNL     1      47.722  15.025  18.907  0.00  0.00    +0.039 C 
ATOM     10  C   UNL     1      46.854  13.786  18.932  0.00  0.00    -0.030 C 
ATOM     11  C   UNL     1      45.955  13.788  17.678  0.00  0.00    +0.026 C 
ATOM     12  C   UNL     1      47.728  12.531  18.850  0.00  0.00    +0.044 C 
ATOM     13  C   UNL     1      48.540  12.400  20.140  0.00  0.00    +0.144 C 
ATOM     16  C   UNL     1      47.567  12.164  21.293  0.00  0.00    +0.146 C 
ATOM     19  C   UNL     1      46.618  13.353  21.455  0.00  0.00    -0.039 C 
ATOM     20  C   UNL     1      45.521  12.904  22.449  0.00  0.00    +0.023 C 
ATOM     21  C   UNL     1      47.377  14.509  22.106  0.00  0.00    +0.038 C 
ATOM     22  C   UNL     1      45.951  13.744  20.151  0.00  0.00    +0.004 C 
ATOM     23  C   UNL     1      45.090  14.989  20.273  0.00  0.00    +0.022 C 
ATOM     24  C   UNL     1      45.822  16.308  20.134  0.00  0.00    +0.051 C 
ATOM     25  C   UNL     1      46.884  16.297  19.049  0.00  0.00    -0.086 C 
ATOM     26  C   UNL     1      46.577  17.078  17.766  0.00  0.00    +0.014 C 
ATOM     27  C   UNL     1      47.641  17.601  18.750  0.00  0.00    -0.068 C 
ATOM     28  C   UNL     1      47.242  18.859  19.514  0.00  0.00    +0.065 C 
ATOM     29  C   UNL     1      50.899  18.730  17.183  0.00  0.00    +0.004 C 
ATOM     30  C   UNL     1      48.468  19.643  19.986  0.00  0.00    -0.086 C 
ATOM     34  C   UNL     1      51.948  19.824  17.365  0.00  0.00    +0.142 C 
ATOM     37  C   UNL     1      53.017  19.364  18.361  0.00  0.00    +0.006 C 
ENDROOT
BRANCH  30  31
ATOM     31  C   UNL     1      48.016  20.943  20.595  0.00  0.00    +0.503 C 
ATOM     32  O   UNL     1      48.585  21.385  21.580  0.00  0.00    -0.704 OA
ATOM     33  O   UNL     1      47.081  21.554  20.106  0.00  0.00    -0.698 OA
ENDBRANCH  30  31
BRANCH  13  14
ATOM     14  O   UNL     1      49.428  11.283  20.029  0.00  0.00    -0.567 OA
ATOM     15  H   UNL     1      49.366  10.658  20.764  0.00  0.00    +0.373 HD
ENDBRANCH  13  14
BRANCH  16  17
ATOM     17  O   UNL     1      48.304  11.983  22.505  0.00  0.00    -0.558 OA
ATOM     18  H   UNL     1      47.914  12.423  23.273  0.00  0.00    +0.370 HD
ENDBRANCH  16  17
BRANCH  34  35
ATOM     35  O   UNL     1      52.591  20.049  16.097  0.00  0.00    -0.565 OA
ATOM     36  H   UNL     1      53.012  19.263  15.725  0.00  0.00    +0.366 HD
ENDBRANCH  34  35
TORSDOF 4
ENDMDL
MODEL 9
REMARK VINA RESULT:      -5.6      1.914      8.052
REMARK  Name = ZINC95485900
REMARK  9 active torsions:
REMARK  status: ('A' for Active; 'I' for Inactive)
REMARK    1  A    between atoms: C1_1  and  C2_2
REMARK    2  A    between atoms: C7_10  and  C8_11
REMARK    3  A    between atoms: C7_10  and  O1_12
REMARK    4  A    between atoms: C13_18  and  C29_42
REMARK    5  A    between atoms: C15_20  and  O5_41
REMARK    6  A    between atoms: C16_22  and  O4_40
REMARK    7  A    between atoms: C17_24  and  C27_38
REMARK    8  A    between atoms: C17_24  and  C28_39
REMARK    9  A    between atoms: C25_33  and  C26_35
REMARK                            x       y       z     vdW  Elec       q    Type
REMARK                         _______ _______ _______ _____ _____    ______ ____
ROOT
ATOM      1  C   UNL     1      50.190  10.277  15.362  0.00  0.00    +0.025 C 
ATOM      2  C   UNL     1      49.593  11.448  14.580  0.00  0.00    -0.009 C 
ATOM      3  C   UNL     1      48.521  12.143  15.419  0.00  0.00    +0.032 C 
ATOM      4  C   UNL     1      49.146  12.903  16.580  0.00  0.00    +0.026 C 
ATOM      5  C   UNL     1      50.130  13.936  16.024  0.00  0.00    +0.028 C 
ATOM      6  C   UNL     1      50.669  14.800  17.129  0.00  0.00    -0.043 C 
ATOM      7  C   UNL     1      51.709  15.564  16.864  0.00  0.00    -0.091 C 
ATOM      8  C   UNL     1      52.310  16.458  17.925  0.00  0.00    +0.056 C 
ATOM      9  C   UNL     1      51.150  17.151  18.651  0.00  0.00    +0.039 C 
ATOM     10  C   UNL     1      51.619  18.209  19.627  0.00  0.00    -0.030 C 
ATOM     11  C   UNL     1      52.604  17.561  20.621  0.00  0.00    +0.026 C 
ATOM     12  C   UNL     1      52.391  19.303  18.884  0.00  0.00    +0.044 C 
ATOM     13  C   UNL     1      51.425  20.077  17.986  0.00  0.00    +0.144 C 
ATOM     16  C   UNL     1      50.419  20.801  18.880  0.00  0.00    +0.146 C 
ATOM     19  C   UNL     1      49.599  19.799  19.696  0.00  0.00    -0.039 C 
ATOM     20  C   UNL     1      48.819  20.626  20.745  0.00  0.00    +0.023 C 
ATOM     21  C   UNL     1      48.571  19.137  18.781  0.00  0.00    +0.038 C 
ATOM     22  C   UNL     1      50.470  18.797  20.427  0.00  0.00    +0.004 C 
ATOM     23  C   UNL     1      49.670  17.731  21.154  0.00  0.00    +0.022 C 
ATOM     24  C   UNL     1      49.247  16.543  20.315  0.00  0.00    +0.051 C 
ATOM     25  C   UNL     1      50.322  16.073  19.351  0.00  0.00    -0.086 C 
ATOM     26  C   UNL     1      51.030  14.755  19.688  0.00  0.00    +0.014 C 
ATOM     27  C   UNL     1      50.048  14.821  18.502  0.00  0.00    -0.068 C 
ATOM     28  C   UNL     1      48.736  14.074  18.717  0.00  0.00    +0.065 C 
ATOM     29  C   UNL     1      51.255  13.215  15.291  0.00  0.00    +0.004 C 
ATOM     30  C   UNL     1      48.095  13.671  17.388  0.00  0.00    -0.086 C 
ATOM     34  C   UNL     1      50.698  12.393  14.132  0.00  0.00    +0.142 C 
ATOM     37  C   UNL     1      50.175  13.323  13.034  0.00  0.00    +0.006 C 
ENDROOT
BRANCH  30  31
ATOM     31  C   UNL     1      46.890  12.811  17.664  0.00  0.00    +0.503 C 
ATOM     32  O   UNL     1      47.002  11.810  18.353  0.00  0.00    -0.704 OA
ATOM     33  O   UNL     1      45.805  13.113  17.200  0.00  0.00    -0.698 OA
ENDBRANCH  30  31
BRANCH  13  14
ATOM     14  O   UNL     1      52.158  21.038  17.219  0.00  0.00    -0.567 OA
ATOM     15  H   UNL     1      52.298  20.781  16.298  0.00  0.00    +0.373 HD
ENDBRANCH  13  14
BRANCH  16  17
ATOM     17  O   UNL     1      49.536  21.578  18.066  0.00  0.00    -0.558 OA
ATOM     18  H   UNL     1      49.907  22.423  17.778  0.00  0.00    +0.370 HD
ENDBRANCH  16  17
BRANCH  34  35
ATOM     35  O   UNL     1      51.770  11.609  13.578  0.00  0.00    -0.565 OA
ATOM     36  H   UNL     1      51.742  10.675  13.824  0.00  0.00    +0.366 HD
ENDBRANCH  34  35
TORSDOF 4
ENDMDL
