MODEL 1
REMARK VINA RESULT:      -5.5      0.000      0.000
REMARK  Name = ZINC95486162
REMARK  13 active torsions:
REMARK  status: ('A' for Active; 'I' for Inactive)
REMARK    1  A    between atoms: C1_1  and  C2_2
REMARK    2  A    between atoms: C6_6  and  O1_8
REMARK    3  A    between atoms: O1_8  and  C8_9
REMARK    4  A    between atoms: C9_10  and  O4_33
REMARK    5  A    between atoms: C11_12  and  C26_32
REMARK    6  A    between atoms: C12_13  and  C13_14
REMARK    7  A    between atoms: C14_15  and  O3_30
REMARK    8  A    between atoms: C16_17  and  O2_28
REMARK    9  A    between atoms: C20_21  and  C23_27
REMARK   10  A    between atoms: C21_24  and  C22_26
REMARK   11  A    between atoms: O2_28  and  C24_29
REMARK   12  A    between atoms: O3_30  and  C25_31
REMARK   13  A    between atoms: O4_33  and  C27_34
REMARK                            x       y       z     vdW  Elec       q    Type
REMARK                         _______ _______ _______ _____ _____    ______ ____
ROOT
ATOM     16  C   UNL     1      50.792  17.603  19.598  0.00  0.00    -0.102 A 
ATOM     17  C   UNL     1      50.536  17.530  20.970  0.00  0.00    +0.182 A 
ATOM     20  C   UNL     1      50.667  18.663  21.752  0.00  0.00    -0.167 A 
ATOM     21  C   UNL     1      51.051  19.862  21.173  0.00  0.00    +0.178 A 
ATOM     24  C   UNL     1      51.307  19.939  19.804  0.00  0.00    -0.181 A 
ATOM     25  C   UNL     1      51.716  21.269  19.228  0.00  0.00    +0.229 C 
ATOM     26  C   UNL     1      52.716  21.943  20.170  0.00  0.00    +0.048 C 
ATOM     27  N   UNL     1      52.352  21.085  17.916  0.00  0.00    -0.670 NA
ATOM     28  H   UNL     1      53.261  20.655  18.004  0.00  0.00    +0.342 HD
ATOM     29  C   UNL     1      51.477  20.290  17.040  0.00  0.00    +0.165 C 
ATOM     30  C   UNL     1      52.001  20.334  15.604  0.00  0.00    +0.038 C 
ATOM     31  C   UNL     1      51.472  18.846  17.541  0.00  0.00    +0.058 C 
ATOM     32  C   UNL     1      51.188  18.814  19.021  0.00  0.00    +0.012 A 
ENDROOT
BRANCH  16  15
ATOM      1  C   UNL     1      45.913  17.496  17.938  0.00  0.00    +0.090 C 
ATOM      2  C   UNL     1      47.107  16.600  17.735  0.00  0.00    -0.026 A 
ATOM      3  C   UNL     1      48.292  16.916  18.330  0.00  0.00    -0.033 A 
ATOM      4  C   UNL     1      49.409  16.089  18.148  0.00  0.00    +0.046 A 
ATOM      5  C   UNL     1      49.296  14.929  17.344  0.00  0.00    -0.103 A 
ATOM      6  C   UNL     1      50.419  14.098  17.160  0.00  0.00    +0.173 A 
ATOM      9  C   UNL     1      51.615  14.419  17.763  0.00  0.00    -0.107 A 
ATOM     10  C   UNL     1      51.734  15.556  18.554  0.00  0.00    -0.008 A 
ATOM     11  C   UNL     1      53.057  15.878  19.200  0.00  0.00    +0.092 C 
ATOM     12  C   UNL     1      48.060  14.627  16.740  0.00  0.00    +0.171 A 
ATOM     15  C   UNL     1      50.652  16.395  18.754  0.00  0.00    -0.072 A 
ATOM     33  C   UNL     1      46.982  15.459  16.947  0.00  0.00    -0.112 A 
BRANCH   6   7
ATOM      7  O   UNL     1      50.321  12.983  16.392  0.00  0.00    -0.291 OA
ATOM      8  C   UNL     1      51.373  12.748  15.453  0.00  0.00    +0.237 C 
ENDBRANCH   6   7
BRANCH  12  13
ATOM     13  O   UNL     1      47.929  13.519  15.965  0.00  0.00    -0.291 OA
ATOM     14  C   UNL     1      46.915  12.584  16.335  0.00  0.00    +0.237 C 
ENDBRANCH  12  13
ENDBRANCH  16  15
BRANCH  17  18
ATOM     18  O   UNL     1      50.157  16.352  21.533  0.00  0.00    -0.301 OA
ATOM     19  C   UNL     1      48.833  16.282  22.065  0.00  0.00    +0.236 C 
ENDBRANCH  17  18
BRANCH  21  22
ATOM     22  O   UNL     1      51.178  20.973  21.945  0.00  0.00    -0.300 OA
ATOM     23  C   UNL     1      49.980  21.513  22.505  0.00  0.00    +0.230 C 
ENDBRANCH  21  22
TORSDOF 5
ENDMDL
MODEL 2
REMARK VINA RESULT:      -5.3      4.387      6.663
REMARK  Name = ZINC95486162
REMARK  13 active torsions:
REMARK  status: ('A' for Active; 'I' for Inactive)
REMARK    1  A    between atoms: C1_1  and  C2_2
REMARK    2  A    between atoms: C6_6  and  O1_8
REMARK    3  A    between atoms: O1_8  and  C8_9
REMARK    4  A    between atoms: C9_10  and  O4_33
REMARK    5  A    between atoms: C11_12  and  C26_32
REMARK    6  A    between atoms: C12_13  and  C13_14
REMARK    7  A    between atoms: C14_15  and  O3_30
REMARK    8  A    between atoms: C16_17  and  O2_28
REMARK    9  A    between atoms: C20_21  and  C23_27
REMARK   10  A    between atoms: C21_24  and  C22_26
REMARK   11  A    between atoms: O2_28  and  C24_29
REMARK   12  A    between atoms: O3_30  and  C25_31
REMARK   13  A    between atoms: O4_33  and  C27_34
REMARK                            x       y       z     vdW  Elec       q    Type
REMARK                         _______ _______ _______ _____ _____    ______ ____
ROOT
ATOM     16  C   UNL     1      45.186  19.630  20.395  0.00  0.00    -0.102 A 
ATOM     17  C   UNL     1      46.327  20.267  20.891  0.00  0.00    +0.182 A 
ATOM     20  C   UNL     1      46.378  21.650  20.925  0.00  0.00    -0.167 A 
ATOM     21  C   UNL     1      45.301  22.392  20.467  0.00  0.00    +0.178 A 
ATOM     24  C   UNL     1      44.162  21.760  19.972  0.00  0.00    -0.181 A 
ATOM     25  C   UNL     1      43.019  22.617  19.494  0.00  0.00    +0.229 C 
ATOM     26  C   UNL     1      43.574  23.796  18.692  0.00  0.00    +0.048 C 
ATOM     27  N   UNL     1      42.122  21.838  18.630  0.00  0.00    -0.670 NA
ATOM     28  H   UNL     1      42.555  21.628  17.743  0.00  0.00    +0.342 HD
ATOM     29  C   UNL     1      41.705  20.606  19.318  0.00  0.00    +0.165 C 
ATOM     30  C   UNL     1      40.565  19.940  18.546  0.00  0.00    +0.038 C 
ATOM     31  C   UNL     1      42.903  19.659  19.383  0.00  0.00    +0.058 C 
ATOM     32  C   UNL     1      44.107  20.386  19.927  0.00  0.00    +0.012 A 
ENDROOT
BRANCH  16  15
ATOM      1  C   UNL     1      47.649  18.137  16.119  0.00  0.00    +0.090 C 
ATOM      2  C   UNL     1      46.945  17.404  17.231  0.00  0.00    -0.026 A 
ATOM      3  C   UNL     1      46.378  18.112  18.249  0.00  0.00    -0.033 A 
ATOM      4  C   UNL     1      45.720  17.440  19.288  0.00  0.00    +0.046 A 
ATOM      5  C   UNL     1      45.650  16.026  19.271  0.00  0.00    -0.103 A 
ATOM      6  C   UNL     1      44.989  15.349  20.315  0.00  0.00    +0.173 A 
ATOM      9  C   UNL     1      44.417  16.068  21.343  0.00  0.00    -0.107 A 
ATOM     10  C   UNL     1      44.481  17.455  21.366  0.00  0.00    -0.008 A 
ATOM     11  C   UNL     1      43.844  18.211  22.504  0.00  0.00    +0.092 C 
ATOM     12  C   UNL     1      46.245  15.318  18.207  0.00  0.00    +0.171 A 
ATOM     15  C   UNL     1      45.124  18.151  20.357  0.00  0.00    -0.072 A 
ATOM     33  C   UNL     1      46.877  16.014  17.200  0.00  0.00    -0.112 A 
BRANCH   6   7
ATOM      7  O   UNL     1      44.915  13.994  20.309  0.00  0.00    -0.291 OA
ATOM      8  C   UNL     1      45.233  13.321  21.528  0.00  0.00    +0.237 C 
ENDBRANCH   6   7
BRANCH  12  13
ATOM     13  O   UNL     1      46.189  13.962  18.171  0.00  0.00    -0.291 OA
ATOM     14  C   UNL     1      46.673  13.324  16.989  0.00  0.00    +0.237 C 
ENDBRANCH  12  13
ENDBRANCH  16  15
BRANCH  17  18
ATOM     18  O   UNL     1      47.379  19.534  21.340  0.00  0.00    -0.301 OA
ATOM     19  C   UNL     1      48.677  20.121  21.223  0.00  0.00    +0.236 C 
ENDBRANCH  17  18
BRANCH  21  22
ATOM     22  O   UNL     1      45.356  23.749  20.503  0.00  0.00    -0.300 OA
ATOM     23  C   UNL     1      46.319  24.337  21.379  0.00  0.00    +0.230 C 
ENDBRANCH  21  22
TORSDOF 5
ENDMDL
MODEL 3
REMARK VINA RESULT:      -5.2      0.972      3.102
REMARK  Name = ZINC95486162
REMARK  13 active torsions:
REMARK  status: ('A' for Active; 'I' for Inactive)
REMARK    1  A    between atoms: C1_1  and  C2_2
REMARK    2  A    between atoms: C6_6  and  O1_8
REMARK    3  A    between atoms: O1_8  and  C8_9
REMARK    4  A    between atoms: C9_10  and  O4_33
REMARK    5  A    between atoms: C11_12  and  C26_32
REMARK    6  A    between atoms: C12_13  and  C13_14
REMARK    7  A    between atoms: C14_15  and  O3_30
REMARK    8  A    between atoms: C16_17  and  O2_28
REMARK    9  A    between atoms: C20_21  and  C23_27
REMARK   10  A    between atoms: C21_24  and  C22_26
REMARK   11  A    between atoms: O2_28  and  C24_29
REMARK   12  A    between atoms: O3_30  and  C25_31
REMARK   13  A    between atoms: O4_33  and  C27_34
REMARK                            x       y       z     vdW  Elec       q    Type
REMARK                         _______ _______ _______ _____ _____    ______ ____
ROOT
ATOM     16  C   UNL     1      49.788  17.820  19.291  0.00  0.00    -0.102 A 
ATOM     17  C   UNL     1      49.304  17.867  20.602  0.00  0.00    +0.182 A 
ATOM     20  C   UNL     1      49.560  18.978  21.386  0.00  0.00    -0.167 A 
ATOM     21  C   UNL     1      50.293  20.034  20.870  0.00  0.00    +0.178 A 
ATOM     24  C   UNL     1      50.777  19.991  19.563  0.00  0.00    -0.181 A 
ATOM     25  C   UNL     1      51.563  21.170  19.053  0.00  0.00    +0.229 C 
ATOM     26  C   UNL     1      52.524  21.648  20.144  0.00  0.00    +0.048 C 
ATOM     27  N   UNL     1      52.344  20.791  17.868  0.00  0.00    -0.670 NA
ATOM     28  H   UNL     1      53.106  20.175  18.110  0.00  0.00    +0.342 HD
ATOM     29  C   UNL     1      51.465  20.171  16.864  0.00  0.00    +0.165 C 
ATOM     30  C   UNL     1      52.211  20.033  15.535  0.00  0.00    +0.038 C 
ATOM     31  C   UNL     1      51.054  18.788  17.368  0.00  0.00    +0.058 C 
ATOM     32  C   UNL     1      50.535  18.886  18.780  0.00  0.00    +0.012 A 
ENDROOT
BRANCH  16  15
ATOM      1  C   UNL     1      53.733  14.569  19.963  0.00  0.00    +0.090 C 
ATOM      2  C   UNL     1      52.473  14.529  19.137  0.00  0.00    -0.026 A 
ATOM      3  C   UNL     1      51.608  15.582  19.182  0.00  0.00    -0.033 A 
ATOM      4  C   UNL     1      50.433  15.556  18.417  0.00  0.00    +0.046 A 
ATOM      5  C   UNL     1      50.156  14.431  17.602  0.00  0.00    -0.103 A 
ATOM      6  C   UNL     1      48.975  14.405  16.834  0.00  0.00    +0.173 A 
ATOM      9  C   UNL     1      48.102  15.470  16.880  0.00  0.00    -0.107 A 
ATOM     10  C   UNL     1      48.368  16.576  17.677  0.00  0.00    -0.008 A 
ATOM     11  C   UNL     1      47.394  17.726  17.705  0.00  0.00    +0.092 C 
ATOM     12  C   UNL     1      51.067  13.357  17.575  0.00  0.00    +0.171 A 
ATOM     15  C   UNL     1      49.517  16.636  18.445  0.00  0.00    -0.072 A 
ATOM     33  C   UNL     1      52.213  13.422  18.335  0.00  0.00    -0.112 A 
BRANCH   6   7
ATOM      7  O   UNL     1      48.699  13.332  16.048  0.00  0.00    -0.291 OA
ATOM      8  C   UNL     1      47.324  12.970  15.905  0.00  0.00    +0.237 C 
ENDBRANCH   6   7
BRANCH  12  13
ATOM     13  O   UNL     1      50.819  12.269  16.800  0.00  0.00    -0.291 OA
ATOM     14  C   UNL     1      51.902  11.775  16.011  0.00  0.00    +0.237 C 
ENDBRANCH  12  13
ENDBRANCH  16  15
BRANCH  17  18
ATOM     18  O   UNL     1      48.584  16.829  21.102  0.00  0.00    -0.301 OA
ATOM     19  C   UNL     1      47.231  17.097  21.476  0.00  0.00    +0.236 C 
ENDBRANCH  17  18
BRANCH  21  22
ATOM     22  O   UNL     1      50.541  21.123  21.644  0.00  0.00    -0.300 OA
ATOM     23  C   UNL     1      49.486  21.564  22.500  0.00  0.00    +0.230 C 
ENDBRANCH  21  22
TORSDOF 5
ENDMDL
MODEL 4
REMARK VINA RESULT:      -4.9      1.935      7.167
REMARK  Name = ZINC95486162
REMARK  13 active torsions:
REMARK  status: ('A' for Active; 'I' for Inactive)
REMARK    1  A    between atoms: C1_1  and  C2_2
REMARK    2  A    between atoms: C6_6  and  O1_8
REMARK    3  A    between atoms: O1_8  and  C8_9
REMARK    4  A    between atoms: C9_10  and  O4_33
REMARK    5  A    between atoms: C11_12  and  C26_32
REMARK    6  A    between atoms: C12_13  and  C13_14
REMARK    7  A    between atoms: C14_15  and  O3_30
REMARK    8  A    between atoms: C16_17  and  O2_28
REMARK    9  A    between atoms: C20_21  and  C23_27
REMARK   10  A    between atoms: C21_24  and  C22_26
REMARK   11  A    between atoms: O2_28  and  C24_29
REMARK   12  A    between atoms: O3_30  and  C25_31
REMARK   13  A    between atoms: O4_33  and  C27_34
REMARK                            x       y       z     vdW  Elec       q    Type
REMARK                         _______ _______ _______ _____ _____    ______ ____
ROOT
ATOM     16  C   UNL     1      49.243  16.016  18.251  0.00  0.00    -0.102 A 
ATOM     17  C   UNL     1      48.089  16.011  17.461  0.00  0.00    +0.182 A 
ATOM     20  C   UNL     1      47.844  14.945  16.614  0.00  0.00    -0.167 A 
ATOM     21  C   UNL     1      48.741  13.890  16.553  0.00  0.00    +0.178 A 
ATOM     24  C   UNL     1      49.893  13.891  17.339  0.00  0.00    -0.181 A 
ATOM     25  C   UNL     1      50.830  12.717  17.236  0.00  0.00    +0.229 C 
ATOM     26  C   UNL     1      50.981  12.318  15.767  0.00  0.00    +0.048 C 
ATOM     27  N   UNL     1      52.152  13.068  17.770  0.00  0.00    -0.670 NA
ATOM     28  H   UNL     1      52.633  13.718  17.166  0.00  0.00    +0.342 HD
ATOM     29  C   UNL     1      52.016  13.614  19.130  0.00  0.00    +0.165 C 
ATOM     30  C   UNL     1      53.393  13.717  19.788  0.00  0.00    +0.038 C 
ATOM     31  C   UNL     1      51.389  15.005  19.032  0.00  0.00    +0.058 C 
ATOM     32  C   UNL     1      50.148  14.952  18.178  0.00  0.00    +0.012 A 
ENDROOT
BRANCH  16  15
ATOM      1  C   UNL     1      51.943  19.484  15.557  0.00  0.00    +0.090 C 
ATOM      2  C   UNL     1      51.428  19.428  16.971  0.00  0.00    -0.026 A 
ATOM      3  C   UNL     1      50.727  18.336  17.388  0.00  0.00    -0.033 A 
ATOM      4  C   UNL     1      50.243  18.275  18.702  0.00  0.00    +0.046 A 
ATOM      5  C   UNL     1      50.488  19.352  19.588  0.00  0.00    -0.103 A 
ATOM      6  C   UNL     1      50.002  19.290  20.909  0.00  0.00    +0.173 A 
ATOM      9  C   UNL     1      49.294  18.185  21.328  0.00  0.00    -0.107 A 
ATOM     10  C   UNL     1      49.049  17.125  20.465  0.00  0.00    -0.008 A 
ATOM     11  C   UNL     1      48.272  15.930  20.955  0.00  0.00    +0.092 C 
ATOM     12  C   UNL     1      51.215  20.469  19.131  0.00  0.00    +0.171 A 
ATOM     15  C   UNL     1      49.511  17.152  19.161  0.00  0.00    -0.072 A 
ATOM     33  C   UNL     1      51.680  20.490  17.834  0.00  0.00    -0.112 A 
BRANCH   6   7
ATOM      7  O   UNL     1      50.231  20.317  21.767  0.00  0.00    -0.291 OA
ATOM      8  C   UNL     1      49.109  20.817  22.495  0.00  0.00    +0.237 C 
ENDBRANCH   6   7
BRANCH  12  13
ATOM     13  O   UNL     1      51.461  21.513  19.964  0.00  0.00    -0.291 OA
ATOM     14  C   UNL     1      52.825  21.905  20.126  0.00  0.00    +0.237 C 
ENDBRANCH  12  13
ENDBRANCH  16  15
BRANCH  17  18
ATOM     18  O   UNL     1      47.212  17.047  17.527  0.00  0.00    -0.301 OA
ATOM     19  C   UNL     1      45.948  16.790  18.141  0.00  0.00    +0.236 C 
ENDBRANCH  17  18
BRANCH  21  22
ATOM     22  O   UNL     1      48.496  12.845  15.720  0.00  0.00    -0.300 OA
ATOM     23  C   UNL     1      47.244  12.175  15.872  0.00  0.00    +0.230 C 
ENDBRANCH  21  22
TORSDOF 5
ENDMDL
MODEL 5
REMARK VINA RESULT:      -4.9      3.119      7.280
REMARK  Name = ZINC95486162
REMARK  13 active torsions:
REMARK  status: ('A' for Active; 'I' for Inactive)
REMARK    1  A    between atoms: C1_1  and  C2_2
REMARK    2  A    between atoms: C6_6  and  O1_8
REMARK    3  A    between atoms: O1_8  and  C8_9
REMARK    4  A    between atoms: C9_10  and  O4_33
REMARK    5  A    between atoms: C11_12  and  C26_32
REMARK    6  A    between atoms: C12_13  and  C13_14
REMARK    7  A    between atoms: C14_15  and  O3_30
REMARK    8  A    between atoms: C16_17  and  O2_28
REMARK    9  A    between atoms: C20_21  and  C23_27
REMARK   10  A    between atoms: C21_24  and  C22_26
REMARK   11  A    between atoms: O2_28  and  C24_29
REMARK   12  A    between atoms: O3_30  and  C25_31
REMARK   13  A    between atoms: O4_33  and  C27_34
REMARK                            x       y       z     vdW  Elec       q    Type
REMARK                         _______ _______ _______ _____ _____    ______ ____
ROOT
ATOM     16  C   UNL     1      48.945  16.802  18.462  0.00  0.00    -0.102 A 
ATOM     17  C   UNL     1      49.963  16.889  17.507  0.00  0.00    +0.182 A 
ATOM     20  C   UNL     1      50.879  15.859  17.389  0.00  0.00    -0.167 A 
ATOM     21  C   UNL     1      50.783  14.750  18.214  0.00  0.00    +0.178 A 
ATOM     24  C   UNL     1      49.769  14.660  19.167  0.00  0.00    -0.181 A 
ATOM     25  C   UNL     1      49.710  13.430  20.034  0.00  0.00    +0.229 C 
ATOM     26  C   UNL     1      51.126  13.053  20.475  0.00  0.00    +0.048 C 
ATOM     27  N   UNL     1      48.893  13.683  21.228  0.00  0.00    -0.670 NA
ATOM     28  H   UNL     1      49.358  14.313  21.866  0.00  0.00    +0.342 HD
ATOM     29  C   UNL     1      47.577  14.208  20.835  0.00  0.00    +0.165 C 
ATOM     30  C   UNL     1      46.636  14.208  22.041  0.00  0.00    +0.038 C 
ATOM     31  C   UNL     1      47.758  15.638  20.326  0.00  0.00    +0.058 C 
ATOM     32  C   UNL     1      48.859  15.684  19.297  0.00  0.00    +0.012 A 
ENDROOT
BRANCH  16  15
ATOM      1  C   UNL     1      50.876  20.141  21.882  0.00  0.00    +0.090 C 
ATOM      2  C   UNL     1      49.608  20.091  21.071  0.00  0.00    -0.026 A 
ATOM      3  C   UNL     1      49.389  19.038  20.232  0.00  0.00    -0.033 A 
ATOM      4  C   UNL     1      48.212  18.981  19.473  0.00  0.00    +0.046 A 
ATOM      5  C   UNL     1      47.258  20.021  19.584  0.00  0.00    -0.103 A 
ATOM      6  C   UNL     1      46.075  19.964  18.821  0.00  0.00    +0.173 A 
ATOM      9  C   UNL     1      45.856  18.899  17.974  0.00  0.00    -0.107 A 
ATOM     10  C   UNL     1      46.787  17.875  17.860  0.00  0.00    -0.008 A 
ATOM     11  C   UNL     1      46.517  16.724  16.926  0.00  0.00    +0.092 C 
ATOM     12  C   UNL     1      47.510  21.098  20.458  0.00  0.00    +0.171 A 
ATOM     15  C   UNL     1      47.960  17.899  18.594  0.00  0.00    -0.072 A 
ATOM     33  C   UNL     1      48.674  21.116  21.193  0.00  0.00    -0.112 A 
BRANCH   6   7
ATOM      7  O   UNL     1      45.153  20.956  18.920  0.00  0.00    -0.291 OA
ATOM      8  C   UNL     1      43.801  20.563  19.162  0.00  0.00    +0.237 C 
ENDBRANCH   6   7
BRANCH  12  13
ATOM     13  O   UNL     1      46.608  22.106  20.579  0.00  0.00    -0.291 OA
ATOM     14  C   UNL     1      46.200  22.455  21.903  0.00  0.00    +0.237 C 
ENDBRANCH  12  13
ENDBRANCH  16  15
BRANCH  17  18
ATOM     18  O   UNL     1      50.051  17.977  16.699  0.00  0.00    -0.301 OA
ATOM     19  C   UNL     1      51.360  18.383  16.296  0.00  0.00    +0.236 C 
ENDBRANCH  17  18
BRANCH  21  22
ATOM     22  O   UNL     1      51.684  13.741  18.093  0.00  0.00    -0.300 OA
ATOM     23  C   UNL     1      51.681  13.012  16.865  0.00  0.00    +0.230 C 
ENDBRANCH  21  22
TORSDOF 5
ENDMDL
MODEL 6
REMARK VINA RESULT:      -4.8      2.668      6.659
REMARK  Name = ZINC95486162
REMARK  13 active torsions:
REMARK  status: ('A' for Active; 'I' for Inactive)
REMARK    1  A    between atoms: C1_1  and  C2_2
REMARK    2  A    between atoms: C6_6  and  O1_8
REMARK    3  A    between atoms: O1_8  and  C8_9
REMARK    4  A    between atoms: C9_10  and  O4_33
REMARK    5  A    between atoms: C11_12  and  C26_32
REMARK    6  A    between atoms: C12_13  and  C13_14
REMARK    7  A    between atoms: C14_15  and  O3_30
REMARK    8  A    between atoms: C16_17  and  O2_28
REMARK    9  A    between atoms: C20_21  and  C23_27
REMARK   10  A    between atoms: C21_24  and  C22_26
REMARK   11  A    between atoms: O2_28  and  C24_29
REMARK   12  A    between atoms: O3_30  and  C25_31
REMARK   13  A    between atoms: O4_33  and  C27_34
REMARK                            x       y       z     vdW  Elec       q    Type
REMARK                         _______ _______ _______ _____ _____    ______ ____
ROOT
ATOM     16  C   UNL     1      48.468  16.697  18.794  0.00  0.00    -0.102 A 
ATOM     17  C   UNL     1      48.045  15.560  19.488  0.00  0.00    +0.182 A 
ATOM     20  C   UNL     1      48.776  14.388  19.392  0.00  0.00    -0.167 A 
ATOM     21  C   UNL     1      49.920  14.349  18.611  0.00  0.00    +0.178 A 
ATOM     24  C   UNL     1      50.345  15.482  17.918  0.00  0.00    -0.181 A 
ATOM     25  C   UNL     1      51.598  15.383  17.089  0.00  0.00    +0.229 C 
ATOM     26  C   UNL     1      51.601  14.053  16.333  0.00  0.00    +0.048 C 
ATOM     27  N   UNL     1      51.655  16.481  16.114  0.00  0.00    -0.670 NA
ATOM     28  H   UNL     1      50.965  16.365  15.387  0.00  0.00    +0.342 HD
ATOM     29  C   UNL     1      51.485  17.771  16.801  0.00  0.00    +0.165 C 
ATOM     30  C   UNL     1      51.821  18.917  15.843  0.00  0.00    +0.038 C 
ATOM     31  C   UNL     1      50.031  17.891  17.254  0.00  0.00    +0.058 C 
ATOM     32  C   UNL     1      49.619  16.648  18.001  0.00  0.00    +0.012 A 
ENDROOT
BRANCH  16  15
ATOM      1  C   UNL     1      50.665  19.521  22.506  0.00  0.00    +0.090 C 
ATOM      2  C   UNL     1      49.486  19.730  21.591  0.00  0.00    -0.026 A 
ATOM      3  C   UNL     1      49.154  18.760  20.692  0.00  0.00    -0.033 A 
ATOM      4  C   UNL     1      48.059  18.945  19.836  0.00  0.00    +0.046 A 
ATOM      5  C   UNL     1      47.305  20.141  19.914  0.00  0.00    -0.103 A 
ATOM      6  C   UNL     1      46.205  20.326  19.055  0.00  0.00    +0.173 A 
ATOM      9  C   UNL     1      45.871  19.345  18.147  0.00  0.00    -0.107 A 
ATOM     10  C   UNL     1      46.605  18.169  18.064  0.00  0.00    -0.008 A 
ATOM     11  C   UNL     1      46.213  17.114  17.061  0.00  0.00    +0.092 C 
ATOM     12  C   UNL     1      47.671  21.126  20.852  0.00  0.00    +0.171 A 
ATOM     15  C   UNL     1      47.693  17.954  18.893  0.00  0.00    -0.072 A 
ATOM     33  C   UNL     1      48.749  20.906  21.681  0.00  0.00    -0.112 A 
BRANCH   6   7
ATOM      7  O   UNL     1      45.474  21.469  19.121  0.00  0.00    -0.291 OA
ATOM      8  C   UNL     1      44.101  21.340  19.495  0.00  0.00    +0.237 C 
ENDBRANCH   6   7
BRANCH  12  13
ATOM     13  O   UNL     1      46.961  22.281  20.944  0.00  0.00    -0.291 OA
ATOM     14  C   UNL     1      47.109  23.039  22.145  0.00  0.00    +0.237 C 
ENDBRANCH  12  13
ENDBRANCH  16  15
BRANCH  17  18
ATOM     18  O   UNL     1      46.924  15.604  20.254  0.00  0.00    -0.301 OA
ATOM     19  C   UNL     1      45.844  14.749  19.875  0.00  0.00    +0.236 C 
ENDBRANCH  17  18
BRANCH  21  22
ATOM     22  O   UNL     1      50.634  13.197  18.522  0.00  0.00    -0.300 OA
ATOM     23  C   UNL     1      51.216  12.698  19.727  0.00  0.00    +0.230 C 
ENDBRANCH  21  22
TORSDOF 5
ENDMDL
MODEL 7
REMARK VINA RESULT:      -4.8      3.576      7.858
REMARK  Name = ZINC95486162
REMARK  13 active torsions:
REMARK  status: ('A' for Active; 'I' for Inactive)
REMARK    1  A    between atoms: C1_1  and  C2_2
REMARK    2  A    between atoms: C6_6  and  O1_8
REMARK    3  A    between atoms: O1_8  and  C8_9
REMARK    4  A    between atoms: C9_10  and  O4_33
REMARK    5  A    between atoms: C11_12  and  C26_32
REMARK    6  A    between atoms: C12_13  and  C13_14
REMARK    7  A    between atoms: C14_15  and  O3_30
REMARK    8  A    between atoms: C16_17  and  O2_28
REMARK    9  A    between atoms: C20_21  and  C23_27
REMARK   10  A    between atoms: C21_24  and  C22_26
REMARK   11  A    between atoms: O2_28  and  C24_29
REMARK   12  A    between atoms: O3_30  and  C25_31
REMARK   13  A    between atoms: O4_33  and  C27_34
REMARK                            x       y       z     vdW  Elec       q    Type
REMARK                         _______ _______ _______ _____ _____    ______ ____
ROOT
ATOM     16  C   UNL     1      48.979  12.838  16.804  0.00  0.00    -0.102 A 
ATOM     17  C   UNL     1      48.875  12.640  15.424  0.00  0.00    +0.182 A 
ATOM     20  C   UNL     1      49.765  11.796  14.785  0.00  0.00    -0.167 A 
ATOM     21  C   UNL     1      50.753  11.153  15.514  0.00  0.00    +0.178 A 
ATOM     24  C   UNL     1      50.859  11.348  16.891  0.00  0.00    -0.181 A 
ATOM     25  C   UNL     1      51.948  10.619  17.633  0.00  0.00    +0.229 C 
ATOM     26  C   UNL     1      53.239  10.668  16.814  0.00  0.00    +0.048 C 
ATOM     27  N   UNL     1      52.191  11.251  18.937  0.00  0.00    -0.670 NA
ATOM     28  H   UNL     1      52.635  12.152  18.833  0.00  0.00    +0.342 HD
ATOM     29  C   UNL     1      50.927  11.370  19.681  0.00  0.00    +0.165 C 
ATOM     30  C   UNL     1      51.213  11.764  21.131  0.00  0.00    +0.038 C 
ATOM     31  C   UNL     1      50.072  12.447  19.015  0.00  0.00    +0.058 C 
ATOM     32  C   UNL     1      49.983  12.193  17.532  0.00  0.00    +0.012 A 
ENDROOT
BRANCH  16  15
ATOM      1  C   UNL     1      51.105  17.535  16.810  0.00  0.00    +0.090 C 
ATOM      2  C   UNL     1      49.811  16.971  17.336  0.00  0.00    -0.026 A 
ATOM      3  C   UNL     1      49.538  15.646  17.169  0.00  0.00    -0.033 A 
ATOM      4  C   UNL     1      48.337  15.112  17.655  0.00  0.00    +0.046 A 
ATOM      5  C   UNL     1      47.414  15.957  18.319  0.00  0.00    -0.103 A 
ATOM      6  C   UNL     1      46.207  15.420  18.808  0.00  0.00    +0.173 A 
ATOM      9  C   UNL     1      45.934  14.080  18.638  0.00  0.00    -0.107 A 
ATOM     10  C   UNL     1      46.834  13.245  17.989  0.00  0.00    -0.008 A 
ATOM     11  C   UNL     1      46.506  11.784  17.820  0.00  0.00    +0.092 C 
ATOM     12  C   UNL     1      47.721  17.323  18.477  0.00  0.00    +0.171 A 
ATOM     15  C   UNL     1      48.029  13.739  17.495  0.00  0.00    -0.072 A 
ATOM     33  C   UNL     1      48.914  17.810  17.992  0.00  0.00    -0.112 A 
BRANCH   6   7
ATOM      7  O   UNL     1      45.315  16.221  19.445  0.00  0.00    -0.291 OA
ATOM      8  C   UNL     1      44.798  15.752  20.692  0.00  0.00    +0.237 C 
ENDBRANCH   6   7
BRANCH  12  13
ATOM     13  O   UNL     1      46.850  18.151  19.110  0.00  0.00    -0.291 OA
ATOM     14  C   UNL     1      46.373  19.277  18.372  0.00  0.00    +0.237 C 
ENDBRANCH  12  13
ENDBRANCH  16  15
BRANCH  17  18
ATOM     18  O   UNL     1      47.903  13.272  14.714  0.00  0.00    -0.301 OA
ATOM     19  C   UNL     1      47.751  12.895  13.344  0.00  0.00    +0.236 C 
ENDBRANCH  17  18
BRANCH  21  22
ATOM     22  O   UNL     1      51.624  10.324  14.882  0.00  0.00    -0.300 OA
ATOM     23  C   UNL     1      51.557  10.277  13.456  0.00  0.00    +0.230 C 
ENDBRANCH  21  22
TORSDOF 5
ENDMDL
MODEL 8
REMARK VINA RESULT:      -4.6      2.007      7.122
REMARK  Name = ZINC95486162
REMARK  13 active torsions:
REMARK  status: ('A' for Active; 'I' for Inactive)
REMARK    1  A    between atoms: C1_1  and  C2_2
REMARK    2  A    between atoms: C6_6  and  O1_8
REMARK    3  A    between atoms: O1_8  and  C8_9
REMARK    4  A    between atoms: C9_10  and  O4_33
REMARK    5  A    between atoms: C11_12  and  C26_32
REMARK    6  A    between atoms: C12_13  and  C13_14
REMARK    7  A    between atoms: C14_15  and  O3_30
REMARK    8  A    between atoms: C16_17  and  O2_28
REMARK    9  A    between atoms: C20_21  and  C23_27
REMARK   10  A    between atoms: C21_24  and  C22_26
REMARK   11  A    between atoms: O2_28  and  C24_29
REMARK   12  A    between atoms: O3_30  and  C25_31
REMARK   13  A    between atoms: O4_33  and  C27_34
REMARK                            x       y       z     vdW  Elec       q    Type
REMARK                         _______ _______ _______ _____ _____    ______ ____
ROOT
ATOM     16  C   UNL     1      50.884  15.332  18.506  0.00  0.00    -0.102 A 
ATOM     17  C   UNL     1      52.010  14.514  18.376  0.00  0.00    +0.182 A 
ATOM     20  C   UNL     1      51.969  13.423  17.526  0.00  0.00    -0.167 A 
ATOM     21  C   UNL     1      50.814  13.148  16.810  0.00  0.00    +0.178 A 
ATOM     24  C   UNL     1      49.689  13.962  16.937  0.00  0.00    -0.181 A 
ATOM     25  C   UNL     1      48.464  13.619  16.131  0.00  0.00    +0.229 C 
ATOM     26  C   UNL     1      48.245  12.105  16.165  0.00  0.00    +0.048 C 
ATOM     27  N   UNL     1      47.280  14.281  16.693  0.00  0.00    -0.670 NA
ATOM     28  H   UNL     1      47.015  13.875  17.578  0.00  0.00    +0.342 HD
ATOM     29  C   UNL     1      47.528  15.725  16.829  0.00  0.00    +0.165 C 
ATOM     30  C   UNL     1      46.218  16.450  17.144  0.00  0.00    +0.038 C 
ATOM     31  C   UNL     1      48.521  15.940  17.970  0.00  0.00    +0.058 C 
ATOM     32  C   UNL     1      49.720  15.044  17.787  0.00  0.00    +0.012 A 
ENDROOT
BRANCH  16  15
ATOM      1  C   UNL     1      52.196  19.407  15.634  0.00  0.00    +0.090 C 
ATOM      2  C   UNL     1      51.874  19.216  17.093  0.00  0.00    -0.026 A 
ATOM      3  C   UNL     1      51.556  17.972  17.553  0.00  0.00    -0.033 A 
ATOM      4  C   UNL     1      51.255  17.783  18.909  0.00  0.00    +0.046 A 
ATOM      5  C   UNL     1      51.284  18.890  19.792  0.00  0.00    -0.103 A 
ATOM      6  C   UNL     1      50.982  18.700  21.155  0.00  0.00    +0.173 A 
ATOM      9  C   UNL     1      50.661  17.442  21.617  0.00  0.00    -0.107 A 
ATOM     10  C   UNL     1      50.630  16.352  20.757  0.00  0.00    -0.008 A 
ATOM     11  C   UNL     1      50.277  14.989  21.295  0.00  0.00    +0.092 C 
ATOM     12  C   UNL     1      51.616  20.164  19.290  0.00  0.00    +0.171 A 
ATOM     15  C   UNL     1      50.921  16.502  19.413  0.00  0.00    -0.072 A 
ATOM     33  C   UNL     1      51.912  20.309  17.953  0.00  0.00    -0.112 A 
BRANCH   6   7
ATOM      7  O   UNL     1      51.007  19.753  22.010  0.00  0.00    -0.291 OA
ATOM      8  C   UNL     1      49.750  20.218  22.505  0.00  0.00    +0.237 C 
ENDBRANCH   6   7
BRANCH  12  13
ATOM     13  O   UNL     1      51.649  21.239  20.120  0.00  0.00    -0.291 OA
ATOM     14  C   UNL     1      52.869  21.980  20.171  0.00  0.00    +0.237 C 
ENDBRANCH  12  13
ENDBRANCH  16  15
BRANCH  17  18
ATOM     18  O   UNL     1      53.140  14.790  19.079  0.00  0.00    -0.301 OA
ATOM     19  C   UNL     1      53.514  13.861  20.098  0.00  0.00    +0.236 C 
ENDBRANCH  17  18
BRANCH  21  22
ATOM     22  O   UNL     1      50.779  12.076  15.976  0.00  0.00    -0.300 OA
ATOM     23  C   UNL     1      51.682  12.085  14.870  0.00  0.00    +0.230 C 
ENDBRANCH  21  22
TORSDOF 5
ENDMDL
MODEL 9
REMARK VINA RESULT:      -4.5      2.023      4.561
REMARK  Name = ZINC95486162
REMARK  13 active torsions:
REMARK  status: ('A' for Active; 'I' for Inactive)
REMARK    1  A    between atoms: C1_1  and  C2_2
REMARK    2  A    between atoms: C6_6  and  O1_8
REMARK    3  A    between atoms: O1_8  and  C8_9
REMARK    4  A    between atoms: C9_10  and  O4_33
REMARK    5  A    between atoms: C11_12  and  C26_32
REMARK    6  A    between atoms: C12_13  and  C13_14
REMARK    7  A    between atoms: C14_15  and  O3_30
REMARK    8  A    between atoms: C16_17  and  O2_28
REMARK    9  A    between atoms: C20_21  and  C23_27
REMARK   10  A    between atoms: C21_24  and  C22_26
REMARK   11  A    between atoms: O2_28  and  C24_29
REMARK   12  A    between atoms: O3_30  and  C25_31
REMARK   13  A    between atoms: O4_33  and  C27_34
REMARK                            x       y       z     vdW  Elec       q    Type
REMARK                         _______ _______ _______ _____ _____    ______ ____
ROOT
ATOM     16  C   UNL     1      49.524  17.459  18.235  0.00  0.00    -0.102 A 
ATOM     17  C   UNL     1      50.310  18.333  17.479  0.00  0.00    +0.182 A 
ATOM     20  C   UNL     1      50.667  19.562  18.005  0.00  0.00    -0.167 A 
ATOM     21  C   UNL     1      50.245  19.919  19.275  0.00  0.00    +0.178 A 
ATOM     24  C   UNL     1      49.461  19.049  20.033  0.00  0.00    -0.181 A 
ATOM     25  C   UNL     1      49.035  19.487  21.410  0.00  0.00    +0.229 C 
ATOM     26  C   UNL     1      48.613  20.957  21.365  0.00  0.00    +0.048 C 
ATOM     27  N   UNL     1      47.898  18.682  21.874  0.00  0.00    -0.670 NA
ATOM     28  H   UNL     1      47.057  18.902  21.362  0.00  0.00    +0.342 HD
ATOM     29  C   UNL     1      48.219  17.250  21.768  0.00  0.00    +0.165 C 
ATOM     30  C   UNL     1      47.162  16.424  22.504  0.00  0.00    +0.038 C 
ATOM     31  C   UNL     1      48.234  16.865  20.289  0.00  0.00    +0.058 C 
ATOM     32  C   UNL     1      49.095  17.829  19.514  0.00  0.00    +0.012 A 
ENDROOT
BRANCH  16  15
ATOM      1  C   UNL     1      53.300  14.166  19.449  0.00  0.00    +0.090 C 
ATOM      2  C   UNL     1      51.999  14.036  18.701  0.00  0.00    -0.026 A 
ATOM      3  C   UNL     1      51.201  15.131  18.548  0.00  0.00    -0.033 A 
ATOM      4  C   UNL     1      49.988  15.021  17.853  0.00  0.00    +0.046 A 
ATOM      5  C   UNL     1      49.602  13.769  17.315  0.00  0.00    -0.103 A 
ATOM      6  C   UNL     1      48.384  13.659  16.616  0.00  0.00    +0.173 A 
ATOM      9  C   UNL     1      47.579  14.767  16.462  0.00  0.00    -0.107 A 
ATOM     10  C   UNL     1      47.951  15.998  16.987  0.00  0.00    -0.008 A 
ATOM     11  C   UNL     1      47.048  17.191  16.801  0.00  0.00    +0.092 C 
ATOM     12  C   UNL     1      50.446  12.654  17.488  0.00  0.00    +0.171 A 
ATOM     15  C   UNL     1      49.140  16.142  17.680  0.00  0.00    -0.072 A 
ATOM     33  C   UNL     1      51.633  12.802  18.171  0.00  0.00    -0.112 A 
BRANCH   6   7
ATOM      7  O   UNL     1      48.004  12.464  16.096  0.00  0.00    -0.291 OA
ATOM      8  C   UNL     1      47.774  12.414  14.686  0.00  0.00    +0.237 C 
ENDBRANCH   6   7
BRANCH  12  13
ATOM     13  O   UNL     1      50.094  11.445  16.980  0.00  0.00    -0.291 OA
ATOM     14  C   UNL     1      51.101  10.724  16.266  0.00  0.00    +0.237 C 
ENDBRANCH  12  13
ENDBRANCH  16  15
BRANCH  17  18
ATOM     18  O   UNL     1      50.723  17.978  16.234  0.00  0.00    -0.301 OA
ATOM     19  C   UNL     1      51.913  18.598  15.742  0.00  0.00    +0.236 C 
ENDBRANCH  17  18
BRANCH  21  22
ATOM     22  O   UNL     1      50.598  21.126  19.788  0.00  0.00    -0.300 OA
ATOM     23  C   UNL     1      51.982  21.478  19.726  0.00  0.00    +0.230 C 
ENDBRANCH  21  22
TORSDOF 5
ENDMDL
