MODEL 1
REMARK VINA RESULT:      -6.3      0.000      0.000
REMARK  Name = ZINC14689062
REMARK  7 active torsions:
REMARK  status: ('A' for Active; 'I' for Inactive)
REMARK    1  A    between atoms: C1_1  and  C2_2
REMARK    2  A    between atoms: C2_2  and  C3_3
REMARK    3  A    between atoms: C2_2  and  C4_5
REMARK    4  A    between atoms: C2_2  and  O5_26
REMARK    5  A    between atoms: C3_3  and  O1_4
REMARK    6  A    between atoms: C9_11  and  O3_24
REMARK    7  A    between atoms: N1_14  and  C19_23
REMARK                            x       y       z     vdW  Elec       q    Type
REMARK                         _______ _______ _______ _____ _____    ______ ____
ROOT
ATOM      5  C   UNL     1      45.393  21.539  20.870  0.00  0.00    +0.149 C 
ATOM      6  C   UNL     1      46.873  21.431  20.432  0.00  0.00    +0.108 C 
ATOM      7  C   UNL     1      46.841  20.218  19.521  0.00  0.00    -0.261 A 
ATOM      8  C   UNL     1      45.511  19.979  19.206  0.00  0.00    +0.198 A 
ATOM      9  C   UNL     1      45.182  18.901  18.381  0.00  0.00    -0.068 A 
ATOM     10  C   UNL     1      46.168  18.077  17.878  0.00  0.00    +0.245 A 
ATOM     13  C   UNL     1      47.513  18.323  18.195  0.00  0.00    -0.270 A 
ATOM     14  C   UNL     1      48.580  17.461  17.670  0.00  0.00    +0.440 A 
ATOM     15  O   UNL     1      48.328  16.513  16.948  0.00  0.00    -0.455 OA
ATOM     16  C   UNL     1      49.967  17.781  18.056  0.00  0.00    -0.208 A 
ATOM     17  C   UNL     1      51.033  17.007  17.594  0.00  0.00    +0.117 A 
ATOM     18  C   UNL     1      52.320  17.327  17.963  0.00  0.00    -0.033 A 
ATOM     19  C   UNL     1      52.560  18.419  18.784  0.00  0.00    +0.085 A 
ATOM     20  C   UNL     1      51.519  19.197  19.244  0.00  0.00    -0.050 A 
ATOM     21  C   UNL     1      50.208  18.890  18.885  0.00  0.00    +0.216 A 
ATOM     22  N   UNL     1      49.167  19.668  19.346  0.00  0.00    -0.518 N 
ATOM     23  C   UNL     1      49.470  20.812  20.208  0.00  0.00    +0.309 C 
ATOM     24  C   UNL     1      47.850  19.409  19.025  0.00  0.00    +0.293 A 
ATOM     25  O   UNL     1      44.695  20.901  19.786  0.00  0.00    -0.283 OA
ENDROOT
BRANCH   5   2
ATOM      1  C   UNL     1      46.214  23.879  21.175  0.00  0.00    +0.081 C 
ATOM      2  C   UNL     1      44.972  23.004  20.997  0.00  0.00    +0.142 C 
BRANCH   2   3
ATOM      3  O   UNL     1      44.115  23.156  22.130  0.00  0.00    -0.535 OA
ATOM      4  H   UNL     1      43.245  22.748  22.025  0.00  0.00    +0.377 HD
ENDBRANCH   2   3
BRANCH   2  26
ATOM     26  C   UNL     1      44.223  23.432  19.732  0.00  0.00    +0.166 C 
BRANCH  26  27
ATOM     27  O   UNL     1      42.838  23.110  19.865  0.00  0.00    -0.560 OA
ATOM     28  H   UNL     1      42.643  22.168  19.773  0.00  0.00    +0.382 HD
ENDBRANCH  26  27
ENDBRANCH   2  26
ENDBRANCH   5   2
BRANCH  10  11
ATOM     11  O   UNL     1      45.838  17.031  17.080  0.00  0.00    -0.471 OA
ATOM     12  H   UNL     1      45.059  16.541  17.375  0.00  0.00    +0.403 HD
ENDBRANCH  10  11
TORSDOF 5
ENDMDL
MODEL 2
REMARK VINA RESULT:      -6.3      2.058      2.774
REMARK  Name = ZINC14689062
REMARK  7 active torsions:
REMARK  status: ('A' for Active; 'I' for Inactive)
REMARK    1  A    between atoms: C1_1  and  C2_2
REMARK    2  A    between atoms: C2_2  and  C3_3
REMARK    3  A    between atoms: C2_2  and  C4_5
REMARK    4  A    between atoms: C2_2  and  O5_26
REMARK    5  A    between atoms: C3_3  and  O1_4
REMARK    6  A    between atoms: C9_11  and  O3_24
REMARK    7  A    between atoms: N1_14  and  C19_23
REMARK                            x       y       z     vdW  Elec       q    Type
REMARK                         _______ _______ _______ _____ _____    ______ ____
ROOT
ATOM      5  C   UNL     1      44.541  18.597  20.684  0.00  0.00    +0.149 C 
ATOM      6  C   UNL     1      45.722  19.518  20.299  0.00  0.00    +0.108 C 
ATOM      7  C   UNL     1      46.505  18.638  19.342  0.00  0.00    -0.261 A 
ATOM      8  C   UNL     1      45.668  17.597  18.968  0.00  0.00    +0.198 A 
ATOM      9  C   UNL     1      46.138  16.617  18.089  0.00  0.00    -0.068 A 
ATOM     10  C   UNL     1      47.424  16.680  17.594  0.00  0.00    +0.245 A 
ATOM     13  C   UNL     1      48.268  17.736  17.971  0.00  0.00    -0.270 A 
ATOM     14  C   UNL     1      49.639  17.825  17.454  0.00  0.00    +0.440 A 
ATOM     15  O   UNL     1      50.081  16.988  16.687  0.00  0.00    -0.455 OA
ATOM     16  C   UNL     1      50.466  18.961  17.904  0.00  0.00    -0.208 A 
ATOM     17  C   UNL     1      51.779  19.110  17.454  0.00  0.00    +0.117 A 
ATOM     18  C   UNL     1      52.530  20.182  17.883  0.00  0.00    -0.033 A 
ATOM     19  C   UNL     1      51.984  21.113  18.754  0.00  0.00    +0.085 A 
ATOM     20  C   UNL     1      50.688  20.982  19.204  0.00  0.00    -0.050 A 
ATOM     21  C   UNL     1      49.910  19.905  18.783  0.00  0.00    +0.216 A 
ATOM     22  N   UNL     1      48.613  19.774  19.234  0.00  0.00    -0.518 N 
ATOM     23  C   UNL     1      48.080  20.784  20.151  0.00  0.00    +0.309 C 
ATOM     24  C   UNL     1      47.799  18.727  18.854  0.00  0.00    +0.293 A 
ATOM     25  O   UNL     1      44.444  17.717  19.551  0.00  0.00    -0.283 OA
ENDROOT
BRANCH   5   2
ATOM      1  C   UNL     1      42.757  19.865  19.479  0.00  0.00    +0.081 C 
ATOM      2  C   UNL     1      43.255  19.408  20.851  0.00  0.00    +0.142 C 
BRANCH   2   3
ATOM      3  O   UNL     1      43.515  20.551  21.669  0.00  0.00    -0.535 OA
ATOM      4  H   UNL     1      44.041  21.235  21.233  0.00  0.00    +0.377 HD
ENDBRANCH   2   3
BRANCH   2  26
ATOM     26  C   UNL     1      42.186  18.538  21.518  0.00  0.00    +0.166 C 
BRANCH  26  27
ATOM     27  O   UNL     1      41.292  19.368  22.262  0.00  0.00    -0.560 OA
ATOM     28  H   UNL     1      40.804  20.004  21.722  0.00  0.00    +0.382 HD
ENDBRANCH  26  27
ENDBRANCH   2  26
ENDBRANCH   5   2
BRANCH  10  11
ATOM     11  O   UNL     1      47.872  15.723  16.744  0.00  0.00    -0.471 OA
ATOM     12  H   UNL     1      48.325  16.070  15.963  0.00  0.00    +0.403 HD
ENDBRANCH  10  11
TORSDOF 5
ENDMDL
MODEL 3
REMARK VINA RESULT:      -6.1      3.309      4.393
REMARK  Name = ZINC14689062
REMARK  7 active torsions:
REMARK  status: ('A' for Active; 'I' for Inactive)
REMARK    1  A    between atoms: C1_1  and  C2_2
REMARK    2  A    between atoms: C2_2  and  C3_3
REMARK    3  A    between atoms: C2_2  and  C4_5
REMARK    4  A    between atoms: C2_2  and  O5_26
REMARK    5  A    between atoms: C3_3  and  O1_4
REMARK    6  A    between atoms: C9_11  and  O3_24
REMARK    7  A    between atoms: N1_14  and  C19_23
REMARK                            x       y       z     vdW  Elec       q    Type
REMARK                         _______ _______ _______ _____ _____    ______ ____
ROOT
ATOM      5  C   UNL     1      45.254  20.983  20.484  0.00  0.00    +0.149 C 
ATOM      6  C   UNL     1      45.468  19.971  19.335  0.00  0.00    +0.108 C 
ATOM      7  C   UNL     1      45.116  18.657  20.007  0.00  0.00    -0.261 A 
ATOM      8  C   UNL     1      44.439  18.966  21.178  0.00  0.00    +0.198 A 
ATOM      9  C   UNL     1      44.001  17.934  22.012  0.00  0.00    -0.068 A 
ATOM     10  C   UNL     1      44.235  16.617  21.679  0.00  0.00    +0.245 A 
ATOM     13  C   UNL     1      44.916  16.306  20.492  0.00  0.00    -0.270 A 
ATOM     14  C   UNL     1      45.175  14.910  20.115  0.00  0.00    +0.440 A 
ATOM     15  O   UNL     1      44.806  13.987  20.819  0.00  0.00    -0.455 OA
ATOM     16  C   UNL     1      45.904  14.668  18.856  0.00  0.00    -0.208 A 
ATOM     17  C   UNL     1      46.185  13.367  18.434  0.00  0.00    +0.117 A 
ATOM     18  C   UNL     1      46.862  13.164  17.252  0.00  0.00    -0.033 A 
ATOM     19  C   UNL     1      47.259  14.246  16.479  0.00  0.00    +0.085 A 
ATOM     20  C   UNL     1      46.984  15.536  16.880  0.00  0.00    -0.050 A 
ATOM     21  C   UNL     1      46.301  15.765  18.073  0.00  0.00    +0.216 A 
ATOM     22  N   UNL     1      46.028  17.056  18.474  0.00  0.00    -0.518 N 
ATOM     23  C   UNL     1      46.465  18.165  17.624  0.00  0.00    +0.309 C 
ATOM     24  C   UNL     1      45.359  17.341  19.647  0.00  0.00    +0.293 A 
ATOM     25  O   UNL     1      44.299  20.312  21.324  0.00  0.00    -0.283 OA
ENDROOT
BRANCH   5   2
ATOM      1  C   UNL     1      43.158  22.169  19.816  0.00  0.00    +0.081 C 
ATOM      2  C   UNL     1      44.677  22.295  19.950  0.00  0.00    +0.142 C 
BRANCH   2   3
ATOM      3  O   UNL     1      45.246  22.580  18.671  0.00  0.00    -0.535 OA
ATOM      4  H   UNL     1      44.594  22.698  17.967  0.00  0.00    +0.377 HD
ENDBRANCH   2   3
BRANCH   2  26
ATOM     26  C   UNL     1      45.010  23.432  20.919  0.00  0.00    +0.166 C 
BRANCH  26  27
ATOM     27  O   UNL     1      44.118  23.385  22.034  0.00  0.00    -0.560 OA
ATOM     28  H   UNL     1      44.469  22.909  22.799  0.00  0.00    +0.382 HD
ENDBRANCH  26  27
ENDBRANCH   2  26
ENDBRANCH   5   2
BRANCH  10  11
ATOM     11  O   UNL     1      43.808  15.622  22.497  0.00  0.00    -0.471 OA
ATOM     12  H   UNL     1      42.898  15.731  22.806  0.00  0.00    +0.403 HD
ENDBRANCH  10  11
TORSDOF 5
ENDMDL
MODEL 4
REMARK VINA RESULT:      -6.1      2.504      4.391
REMARK  Name = ZINC14689062
REMARK  7 active torsions:
REMARK  status: ('A' for Active; 'I' for Inactive)
REMARK    1  A    between atoms: C1_1  and  C2_2
REMARK    2  A    between atoms: C2_2  and  C3_3
REMARK    3  A    between atoms: C2_2  and  C4_5
REMARK    4  A    between atoms: C2_2  and  O5_26
REMARK    5  A    between atoms: C3_3  and  O1_4
REMARK    6  A    between atoms: C9_11  and  O3_24
REMARK    7  A    between atoms: N1_14  and  C19_23
REMARK                            x       y       z     vdW  Elec       q    Type
REMARK                         _______ _______ _______ _____ _____    ______ ____
ROOT
ATOM      5  C   UNL     1      42.451  20.998  18.732  0.00  0.00    +0.149 C 
ATOM      6  C   UNL     1      43.603  19.966  18.717  0.00  0.00    +0.108 C 
ATOM      7  C   UNL     1      44.661  20.669  19.547  0.00  0.00    -0.261 A 
ATOM      8  C   UNL     1      44.029  21.702  20.224  0.00  0.00    +0.198 A 
ATOM      9  C   UNL     1      44.776  22.533  21.064  0.00  0.00    -0.068 A 
ATOM     10  C   UNL     1      46.131  22.331  21.225  0.00  0.00    +0.245 A 
ATOM     13  C   UNL     1      46.767  21.282  20.542  0.00  0.00    -0.270 A 
ATOM     14  C   UNL     1      48.208  21.047  20.699  0.00  0.00    +0.440 A 
ATOM     15  O   UNL     1      48.889  21.752  21.424  0.00  0.00    -0.455 OA
ATOM     16  C   UNL     1      48.804  19.930  19.941  0.00  0.00    -0.208 A 
ATOM     17  C   UNL     1      50.167  19.646  20.042  0.00  0.00    +0.117 A 
ATOM     18  C   UNL     1      50.700  18.595  19.330  0.00  0.00    -0.033 A 
ATOM     19  C   UNL     1      49.886  17.816  18.520  0.00  0.00    +0.085 A 
ATOM     20  C   UNL     1      48.537  18.081  18.414  0.00  0.00    -0.050 A 
ATOM     21  C   UNL     1      47.977  19.140  19.125  0.00  0.00    +0.216 A 
ATOM     22  N   UNL     1      46.628  19.405  19.018  0.00  0.00    -0.518 N 
ATOM     23  C   UNL     1      45.809  18.553  18.153  0.00  0.00    +0.309 C 
ATOM     24  C   UNL     1      46.020  20.442  19.695  0.00  0.00    +0.293 A 
ATOM     25  O   UNL     1      42.698  21.731  19.944  0.00  0.00    -0.283 OA
ENDROOT
BRANCH   5   2
ATOM      1  C   UNL     1      41.042  19.391  20.028  0.00  0.00    +0.081 C 
ATOM      2  C   UNL     1      41.094  20.293  18.793  0.00  0.00    +0.142 C 
BRANCH   2   3
ATOM      3  O   UNL     1      40.916  19.502  17.617  0.00  0.00    -0.535 OA
ATOM      4  H   UNL     1      39.991  19.326  17.397  0.00  0.00    +0.377 HD
ENDBRANCH   2   3
BRANCH   2  26
ATOM     26  C   UNL     1      39.979  21.338  18.878  0.00  0.00    +0.166 C 
BRANCH  26  27
ATOM     27  O   UNL     1      40.340  22.485  18.107  0.00  0.00    -0.560 OA
ATOM     28  H   UNL     1      41.055  22.326  17.476  0.00  0.00    +0.382 HD
ENDBRANCH  26  27
ENDBRANCH   2  26
ENDBRANCH   5   2
BRANCH  10  11
ATOM     11  O   UNL     1      46.847  23.144  22.041  0.00  0.00    -0.471 OA
ATOM     12  H   UNL     1      46.963  24.041  21.699  0.00  0.00    +0.403 HD
ENDBRANCH  10  11
TORSDOF 5
ENDMDL
MODEL 5
REMARK VINA RESULT:      -5.8      2.858      6.521
REMARK  Name = ZINC14689062
REMARK  7 active torsions:
REMARK  status: ('A' for Active; 'I' for Inactive)
REMARK    1  A    between atoms: C1_1  and  C2_2
REMARK    2  A    between atoms: C2_2  and  C3_3
REMARK    3  A    between atoms: C2_2  and  C4_5
REMARK    4  A    between atoms: C2_2  and  O5_26
REMARK    5  A    between atoms: C3_3  and  O1_4
REMARK    6  A    between atoms: C9_11  and  O3_24
REMARK    7  A    between atoms: N1_14  and  C19_23
REMARK                            x       y       z     vdW  Elec       q    Type
REMARK                         _______ _______ _______ _____ _____    ______ ____
ROOT
ATOM      5  C   UNL     1      47.047  14.360  16.489  0.00  0.00    +0.149 C 
ATOM      6  C   UNL     1      48.372  15.039  16.909  0.00  0.00    +0.108 C 
ATOM      7  C   UNL     1      47.872  16.283  17.621  0.00  0.00    -0.261 A 
ATOM      8  C   UNL     1      46.526  16.084  17.892  0.00  0.00    +0.198 A 
ATOM      9  C   UNL     1      45.799  17.086  18.541  0.00  0.00    -0.068 A 
ATOM     10  C   UNL     1      46.410  18.266  18.912  0.00  0.00    +0.245 A 
ATOM     13  C   UNL     1      47.773  18.463  18.641  0.00  0.00    -0.270 A 
ATOM     14  C   UNL     1      48.446  19.709  19.030  0.00  0.00    +0.440 A 
ATOM     15  O   UNL     1      47.842  20.603  19.596  0.00  0.00    -0.455 OA
ATOM     16  C   UNL     1      49.878  19.842  18.702  0.00  0.00    -0.208 A 
ATOM     17  C   UNL     1      50.583  20.998  19.041  0.00  0.00    +0.117 A 
ATOM     18  C   UNL     1      51.921  21.098  18.731  0.00  0.00    -0.033 A 
ATOM     19  C   UNL     1      52.569  20.053  18.088  0.00  0.00    +0.085 A 
ATOM     20  C   UNL     1      51.887  18.903  17.751  0.00  0.00    -0.050 A 
ATOM     21  C   UNL     1      50.533  18.780  18.055  0.00  0.00    +0.216 A 
ATOM     22  N   UNL     1      49.852  17.630  17.716  0.00  0.00    -0.518 N 
ATOM     23  C   UNL     1      50.579  16.553  17.042  0.00  0.00    +0.309 C 
ATOM     24  C   UNL     1      48.510  17.456  17.989  0.00  0.00    +0.293 A 
ATOM     25  O   UNL     1      46.112  14.862  17.459  0.00  0.00    -0.283 OA
ENDROOT
BRANCH   5   2
ATOM      1  C   UNL     1      48.510  12.469  17.217  0.00  0.00    +0.081 C 
ATOM      2  C   UNL     1      47.165  12.838  16.588  0.00  0.00    +0.142 C 
BRANCH   2   3
ATOM      3  O   UNL     1      47.077  12.268  15.281  0.00  0.00    -0.535 OA
ATOM      4  H   UNL     1      46.666  11.393  15.259  0.00  0.00    +0.377 HD
ENDBRANCH   2   3
BRANCH   2  26
ATOM     26  C   UNL     1      46.029  12.293  17.459  0.00  0.00    +0.166 C 
BRANCH  26  27
ATOM     27  O   UNL     1      44.838  12.190  16.678  0.00  0.00    -0.560 OA
ATOM     28  H   UNL     1      44.227  11.505  16.981  0.00  0.00    +0.382 HD
ENDBRANCH  26  27
ENDBRANCH   2  26
ENDBRANCH   5   2
BRANCH  10  11
ATOM     11  O   UNL     1      45.696  19.233  19.539  0.00  0.00    -0.471 OA
ATOM     12  H   UNL     1      46.061  20.123  19.434  0.00  0.00    +0.403 HD
ENDBRANCH  10  11
TORSDOF 5
ENDMDL
MODEL 6
REMARK VINA RESULT:      -5.7      2.163      3.641
REMARK  Name = ZINC14689062
REMARK  7 active torsions:
REMARK  status: ('A' for Active; 'I' for Inactive)
REMARK    1  A    between atoms: C1_1  and  C2_2
REMARK    2  A    between atoms: C2_2  and  C3_3
REMARK    3  A    between atoms: C2_2  and  C4_5
REMARK    4  A    between atoms: C2_2  and  O5_26
REMARK    5  A    between atoms: C3_3  and  O1_4
REMARK    6  A    between atoms: C9_11  and  O3_24
REMARK    7  A    between atoms: N1_14  and  C19_23
REMARK                            x       y       z     vdW  Elec       q    Type
REMARK                         _______ _______ _______ _____ _____    ______ ____
ROOT
ATOM      5  C   UNL     1      45.433  20.927  18.759  0.00  0.00    +0.149 C 
ATOM      6  C   UNL     1      45.660  19.412  18.548  0.00  0.00    +0.108 C 
ATOM      7  C   UNL     1      47.171  19.307  18.649  0.00  0.00    -0.261 A 
ATOM      8  C   UNL     1      47.624  20.485  19.223  0.00  0.00    +0.198 A 
ATOM      9  C   UNL     1      48.995  20.669  19.428  0.00  0.00    -0.068 A 
ATOM     10  C   UNL     1      49.894  19.688  19.065  0.00  0.00    +0.245 A 
ATOM     13  C   UNL     1      49.433  18.495  18.488  0.00  0.00    -0.270 A 
ATOM     14  C   UNL     1      50.372  17.436  18.095  0.00  0.00    +0.440 A 
ATOM     15  O   UNL     1      51.573  17.563  18.259  0.00  0.00    -0.455 OA
ATOM     16  C   UNL     1      49.808  16.216  17.487  0.00  0.00    -0.208 A 
ATOM     17  C   UNL     1      50.640  15.167  17.091  0.00  0.00    +0.117 A 
ATOM     18  C   UNL     1      50.092  14.035  16.531  0.00  0.00    -0.033 A 
ATOM     19  C   UNL     1      48.718  13.932  16.367  0.00  0.00    +0.085 A 
ATOM     20  C   UNL     1      47.883  14.956  16.758  0.00  0.00    -0.050 A 
ATOM     21  C   UNL     1      48.416  16.112  17.326  0.00  0.00    +0.216 A 
ATOM     22  N   UNL     1      47.581  17.137  17.716  0.00  0.00    -0.518 N 
ATOM     23  C   UNL     1      46.137  16.981  17.526  0.00  0.00    +0.309 C 
ATOM     24  C   UNL     1      48.054  18.305  18.280  0.00  0.00    +0.293 A 
ATOM     25  O   UNL     1      46.590  21.318  19.518  0.00  0.00    -0.283 OA
ENDROOT
BRANCH   5   2
ATOM      1  C   UNL     1      44.173  20.331  20.833  0.00  0.00    +0.081 C 
ATOM      2  C   UNL     1      44.152  21.176  19.558  0.00  0.00    +0.142 C 
BRANCH   2   3
ATOM      3  O   UNL     1      43.019  20.814  18.765  0.00  0.00    -0.535 OA
ATOM      4  H   UNL     1      42.295  21.454  18.797  0.00  0.00    +0.377 HD
ENDBRANCH   2   3
BRANCH   2  26
ATOM     26  C   UNL     1      44.061  22.658  19.929  0.00  0.00    +0.166 C 
BRANCH  26  27
ATOM     27  O   UNL     1      44.646  23.446  18.892  0.00  0.00    -0.560 OA
ATOM     28  H   UNL     1      45.565  23.219  18.696  0.00  0.00    +0.382 HD
ENDBRANCH  26  27
ENDBRANCH   2  26
ENDBRANCH   5   2
BRANCH  10  11
ATOM     11  O   UNL     1      51.223  19.877  19.265  0.00  0.00    -0.471 OA
ATOM     12  H   UNL     1      51.467  20.794  19.448  0.00  0.00    +0.403 HD
ENDBRANCH  10  11
TORSDOF 5
ENDMDL
MODEL 7
REMARK VINA RESULT:      -5.7      4.051      8.061
REMARK  Name = ZINC14689062
REMARK  7 active torsions:
REMARK  status: ('A' for Active; 'I' for Inactive)
REMARK    1  A    between atoms: C1_1  and  C2_2
REMARK    2  A    between atoms: C2_2  and  C3_3
REMARK    3  A    between atoms: C2_2  and  C4_5
REMARK    4  A    between atoms: C2_2  and  O5_26
REMARK    5  A    between atoms: C3_3  and  O1_4
REMARK    6  A    between atoms: C9_11  and  O3_24
REMARK    7  A    between atoms: N1_14  and  C19_23
REMARK                            x       y       z     vdW  Elec       q    Type
REMARK                         _______ _______ _______ _____ _____    ______ ____
ROOT
ATOM      5  C   UNL     1      46.876  13.279  16.736  0.00  0.00    +0.149 C 
ATOM      6  C   UNL     1      46.911  14.806  16.975  0.00  0.00    +0.108 C 
ATOM      7  C   UNL     1      46.273  14.922  18.347  0.00  0.00    -0.261 A 
ATOM      8  C   UNL     1      46.279  13.654  18.908  0.00  0.00    +0.198 A 
ATOM      9  C   UNL     1      45.734  13.461  20.181  0.00  0.00    -0.068 A 
ATOM     10  C   UNL     1      45.195  14.522  20.880  0.00  0.00    +0.245 A 
ATOM     13  C   UNL     1      45.195  15.805  20.312  0.00  0.00    -0.270 A 
ATOM     14  C   UNL     1      44.628  16.949  21.037  0.00  0.00    +0.440 A 
ATOM     15  O   UNL     1      44.146  16.817  22.148  0.00  0.00    -0.455 OA
ATOM     16  C   UNL     1      44.658  18.264  20.368  0.00  0.00    -0.208 A 
ATOM     17  C   UNL     1      44.139  19.396  20.998  0.00  0.00    +0.117 A 
ATOM     18  C   UNL     1      44.182  20.614  20.357  0.00  0.00    -0.033 A 
ATOM     19  C   UNL     1      44.745  20.719  19.093  0.00  0.00    +0.085 A 
ATOM     20  C   UNL     1      45.266  19.611  18.461  0.00  0.00    -0.050 A 
ATOM     21  C   UNL     1      45.232  18.368  19.090  0.00  0.00    +0.216 A 
ATOM     22  N   UNL     1      45.753  17.260  18.456  0.00  0.00    -0.518 N 
ATOM     23  C   UNL     1      46.339  17.420  17.124  0.00  0.00    +0.309 C 
ATOM     24  C   UNL     1      45.742  16.005  19.030  0.00  0.00    +0.293 A 
ATOM     25  O   UNL     1      46.859  12.750  18.073  0.00  0.00    -0.283 OA
ENDROOT
BRANCH   5   2
ATOM      1  C   UNL     1      48.878  11.788  16.832  0.00  0.00    +0.081 C 
ATOM      2  C   UNL     1      48.127  12.819  15.987  0.00  0.00    +0.142 C 
BRANCH   2   3
ATOM      3  O   UNL     1      48.975  13.942  15.742  0.00  0.00    -0.535 OA
ATOM      4  H   UNL     1      49.734  13.747  15.175  0.00  0.00    +0.377 HD
ENDBRANCH   2   3
BRANCH   2  26
ATOM     26  C   UNL     1      47.721  12.186  14.654  0.00  0.00    +0.166 C 
BRANCH  26  27
ATOM     27  O   UNL     1      47.379  13.214  13.723  0.00  0.00    -0.560 OA
ATOM     28  H   UNL     1      47.930  14.006  13.791  0.00  0.00    +0.382 HD
ENDBRANCH  26  27
ENDBRANCH   2  26
ENDBRANCH   5   2
BRANCH  10  11
ATOM     11  O   UNL     1      44.667  14.325  22.113  0.00  0.00    -0.471 OA
ATOM     12  H   UNL     1      44.778  15.075  22.713  0.00  0.00    +0.403 HD
ENDBRANCH  10  11
TORSDOF 5
ENDMDL
MODEL 8
REMARK VINA RESULT:      -5.5      3.606      7.937
REMARK  Name = ZINC14689062
REMARK  7 active torsions:
REMARK  status: ('A' for Active; 'I' for Inactive)
REMARK    1  A    between atoms: C1_1  and  C2_2
REMARK    2  A    between atoms: C2_2  and  C3_3
REMARK    3  A    between atoms: C2_2  and  C4_5
REMARK    4  A    between atoms: C2_2  and  O5_26
REMARK    5  A    between atoms: C3_3  and  O1_4
REMARK    6  A    between atoms: C9_11  and  O3_24
REMARK    7  A    between atoms: N1_14  and  C19_23
REMARK                            x       y       z     vdW  Elec       q    Type
REMARK                         _______ _______ _______ _____ _____    ______ ____
ROOT
ATOM      5  C   UNL     1      48.417  13.115  16.399  0.00  0.00    +0.149 C 
ATOM      6  C   UNL     1      47.720  14.484  16.572  0.00  0.00    +0.108 C 
ATOM      7  C   UNL     1      48.875  15.370  17.001  0.00  0.00    -0.261 A 
ATOM      8  C   UNL     1      50.045  14.686  16.706  0.00  0.00    +0.198 A 
ATOM      9  C   UNL     1      51.278  15.269  17.011  0.00  0.00    -0.068 A 
ATOM     10  C   UNL     1      51.337  16.516  17.598  0.00  0.00    +0.245 A 
ATOM     13  C   UNL     1      50.152  17.208  17.892  0.00  0.00    -0.270 A 
ATOM     14  C   UNL     1      50.191  18.536  18.516  0.00  0.00    +0.440 A 
ATOM     15  O   UNL     1      51.248  19.074  18.794  0.00  0.00    -0.455 OA
ATOM     16  C   UNL     1      48.901  19.194  18.800  0.00  0.00    -0.208 A 
ATOM     17  C   UNL     1      48.860  20.458  19.390  0.00  0.00    +0.117 A 
ATOM     18  C   UNL     1      47.645  21.056  19.641  0.00  0.00    -0.033 A 
ATOM     19  C   UNL     1      46.465  20.408  19.304  0.00  0.00    +0.085 A 
ATOM     20  C   UNL     1      46.490  19.162  18.716  0.00  0.00    -0.050 A 
ATOM     21  C   UNL     1      47.708  18.539  18.453  0.00  0.00    +0.216 A 
ATOM     22  N   UNL     1      47.731  17.291  17.866  0.00  0.00    -0.518 N 
ATOM     23  C   UNL     1      46.460  16.649  17.525  0.00  0.00    +0.309 C 
ATOM     24  C   UNL     1      48.908  16.625  17.587  0.00  0.00    +0.293 A 
ATOM     25  O   UNL     1      49.779  13.485  16.124  0.00  0.00    -0.283 OA
ENDROOT
BRANCH   5   2
ATOM      1  C   UNL     1      48.876  11.415  14.625  0.00  0.00    +0.081 C 
ATOM      2  C   UNL     1      47.817  12.347  15.220  0.00  0.00    +0.142 C 
BRANCH   2   3
ATOM      3  O   UNL     1      47.381  13.271  14.222  0.00  0.00    -0.535 OA
ATOM      4  H   UNL     1      46.469  13.137  13.931  0.00  0.00    +0.377 HD
ENDBRANCH   2   3
BRANCH   2  26
ATOM     26  C   UNL     1      46.624  11.519  15.704  0.00  0.00    +0.166 C 
BRANCH  26  27
ATOM     27  O   UNL     1      45.916  10.999  14.577  0.00  0.00    -0.560 OA
ATOM     28  H   UNL     1      46.339  10.234  14.166  0.00  0.00    +0.382 HD
ENDBRANCH  26  27
ENDBRANCH   2  26
ENDBRANCH   5   2
BRANCH  10  11
ATOM     11  O   UNL     1      52.539  17.072  17.892  0.00  0.00    -0.471 OA
ATOM     12  H   UNL     1      53.058  17.321  17.115  0.00  0.00    +0.403 HD
ENDBRANCH  10  11
TORSDOF 5
ENDMDL
MODEL 9
REMARK VINA RESULT:      -5.5      3.370      5.997
REMARK  Name = ZINC14689062
REMARK  7 active torsions:
REMARK  status: ('A' for Active; 'I' for Inactive)
REMARK    1  A    between atoms: C1_1  and  C2_2
REMARK    2  A    between atoms: C2_2  and  C3_3
REMARK    3  A    between atoms: C2_2  and  C4_5
REMARK    4  A    between atoms: C2_2  and  O5_26
REMARK    5  A    between atoms: C3_3  and  O1_4
REMARK    6  A    between atoms: C9_11  and  O3_24
REMARK    7  A    between atoms: N1_14  and  C19_23
REMARK                            x       y       z     vdW  Elec       q    Type
REMARK                         _______ _______ _______ _____ _____    ______ ____
ROOT
ATOM      5  C   UNL     1      50.925  19.583  18.517  0.00  0.00    +0.149 C 
ATOM      6  C   UNL     1      50.376  18.271  17.909  0.00  0.00    +0.108 C 
ATOM      7  C   UNL     1      48.984  18.207  18.510  0.00  0.00    -0.261 A 
ATOM      8  C   UNL     1      48.699  19.468  19.014  0.00  0.00    +0.198 A 
ATOM      9  C   UNL     1      47.472  19.696  19.643  0.00  0.00    -0.068 A 
ATOM     10  C   UNL     1      46.547  18.680  19.762  0.00  0.00    +0.245 A 
ATOM     13  C   UNL     1      46.836  17.407  19.248  0.00  0.00    -0.270 A 
ATOM     14  C   UNL     1      45.865  16.311  19.362  0.00  0.00    +0.440 A 
ATOM     15  O   UNL     1      44.786  16.476  19.904  0.00  0.00    -0.455 OA
ATOM     16  C   UNL     1      46.248  15.000  18.803  0.00  0.00    -0.208 A 
ATOM     17  C   UNL     1      45.375  13.913  18.875  0.00  0.00    +0.117 A 
ATOM     18  C   UNL     1      45.751  12.700  18.341  0.00  0.00    -0.033 A 
ATOM     19  C   UNL     1      46.989  12.559  17.730  0.00  0.00    +0.085 A 
ATOM     20  C   UNL     1      47.858  13.625  17.647  0.00  0.00    -0.050 A 
ATOM     21  C   UNL     1      47.500  14.861  18.181  0.00  0.00    +0.216 A 
ATOM     22  N   UNL     1      48.371  15.927  18.099  0.00  0.00    -0.518 N 
ATOM     23  C   UNL     1      49.665  15.730  17.441  0.00  0.00    +0.309 C 
ATOM     24  C   UNL     1      48.070  17.172  18.613  0.00  0.00    +0.293 A 
ATOM     25  O   UNL     1      49.727  20.330  18.791  0.00  0.00    -0.283 OA
ENDROOT
BRANCH   5   2
ATOM      1  C   UNL     1      52.243  19.353  16.407  0.00  0.00    +0.081 C 
ATOM      2  C   UNL     1      51.806  20.321  17.508  0.00  0.00    +0.142 C 
BRANCH   2   3
ATOM      3  O   UNL     1      52.960  20.840  18.172  0.00  0.00    -0.535 OA
ATOM      4  H   UNL     1      52.789  21.633  18.697  0.00  0.00    +0.377 HD
ENDBRANCH   2   3
BRANCH   2  26
ATOM     26  C   UNL     1      51.014  21.475  16.887  0.00  0.00    +0.166 C 
BRANCH  26  27
ATOM     27  O   UNL     1      51.693  21.945  15.721  0.00  0.00    -0.560 OA
ATOM     28  H   UNL     1      51.430  21.499  14.906  0.00  0.00    +0.382 HD
ENDBRANCH  26  27
ENDBRANCH   2  26
ENDBRANCH   5   2
BRANCH  10  11
ATOM     11  O   UNL     1      45.359  18.912  20.376  0.00  0.00    -0.471 OA
ATOM     12  H   UNL     1      44.816  19.583  19.942  0.00  0.00    +0.403 HD
ENDBRANCH  10  11
TORSDOF 5
ENDMDL
