MODEL 1
REMARK VINA RESULT:      -5.5      0.000      0.000
REMARK  Name = ZINC95485967
REMARK  13 active torsions:
REMARK  status: ('A' for Active; 'I' for Inactive)
REMARK    1  A    between atoms: C1_1  and  C2_2
REMARK    2  A    between atoms: C4_4  and  O4_32
REMARK    3  A    between atoms: C7_7  and  C8_8
REMARK    4  A    between atoms: C8_8  and  C9_9
REMARK    5  A    between atoms: C9_9  and  C10_10
REMARK    6  A    between atoms: C11_11  and  C12_12
REMARK    7  A    between atoms: C11_11  and  C13_13
REMARK    8  A    between atoms: C17_17  and  O1_18
REMARK    9  A    between atoms: C21_23  and  C22_25
REMARK   10  A    between atoms: C22_25  and  C23_26
REMARK   11  A    between atoms: C23_26  and  C24_27
REMARK   12  A    between atoms: C25_28  and  C26_29
REMARK   13  A    between atoms: C25_28  and  C27_30
REMARK                            x       y       z     vdW  Elec       q    Type
REMARK                         _______ _______ _______ _____ _____    ______ ____
ROOT
ATOM      1  C   UNL     1      50.538  13.710  16.290  0.00  0.00    +0.100 C 
ATOM      2  C   UNL     1      49.397  14.405  16.986  0.00  0.00    -0.040 A 
ATOM      3  C   UNL     1      48.263  13.677  17.335  0.00  0.00    -0.013 A 
ATOM      4  C   UNL     1      47.205  14.288  17.971  0.00  0.00    +0.143 A 
ATOM      7  C   UNL     1      47.275  15.663  18.269  0.00  0.00    -0.124 A 
ATOM      8  C   UNL     1      48.436  16.394  17.913  0.00  0.00    +0.016 A 
ATOM      9  C   UNL     1      48.515  17.766  18.217  0.00  0.00    +0.016 A 
ATOM     10  C   UNL     1      47.489  18.401  18.848  0.00  0.00    -0.013 A 
ATOM     11  C   UNL     1      47.655  19.865  19.169  0.00  0.00    +0.017 C 
ATOM     18  C   UNL     1      46.318  20.486  19.490  0.00  0.00    +0.376 C 
ATOM     19  O   UNL     1      45.990  21.543  19.008  0.00  0.00    -0.429 OA
ATOM     20  C   UNL     1      45.401  19.737  20.438  0.00  0.00    +0.044 C 
ATOM     21  C   UNL     1      45.187  18.364  19.837  0.00  0.00    +0.403 C 
ATOM     22  O   UNL     1      44.098  17.829  19.887  0.00  0.00    -0.420 OA
ATOM     23  C   UNL     1      46.322  17.693  19.192  0.00  0.00    -0.212 A 
ATOM     24  C   UNL     1      46.214  16.325  18.912  0.00  0.00    +0.217 A 
ATOM     27  C   UNL     1      49.493  15.734  17.268  0.00  0.00    -0.093 A 
ENDROOT
BRANCH   4   5
ATOM      5  O   UNL     1      46.102  13.570  18.308  0.00  0.00    -0.477 OA
ATOM      6  H   UNL     1      46.298  12.750  18.783  0.00  0.00    +0.390 HD
ENDBRANCH   4   5
BRANCH  24  25
ATOM     25  O   UNL     1      45.096  15.644  19.257  0.00  0.00    -0.458 OA
ATOM     26  H   UNL     1      44.820  15.781  20.173  0.00  0.00    +0.394 HD
ENDBRANCH  24  25
BRANCH  11  12
ATOM     12  C   UNL     1      48.586  20.016  20.374  0.00  0.00    +0.061 C 
BRANCH  12  13
ATOM     13  C   UNL     1      49.696  21.015  20.039  0.00  0.00    +0.050 C 
BRANCH  13  14
ATOM     14  C   UNL     1      49.998  20.953  18.564  0.00  0.00    -0.060 C 
ATOM     15  C   UNL     1      51.240  20.949  18.149  0.00  0.00    -0.126 C 
ATOM     16  C   UNL     1      51.546  20.743  16.687  0.00  0.00    +0.073 C 
ATOM     17  C   UNL     1      52.364  21.151  19.132  0.00  0.00    +0.073 C 
ENDBRANCH  13  14
ENDBRANCH  12  13
ENDBRANCH  11  12
BRANCH  27  28
ATOM     28  C   UNL     1      50.735  16.498  16.885  0.00  0.00    +0.082 C 
BRANCH  28  29
ATOM     29  C   UNL     1      51.842  16.213  17.903  0.00  0.00    +0.055 C 
BRANCH  29  30
ATOM     30  C   UNL     1      51.909  17.341  18.900  0.00  0.00    -0.060 C 
ATOM     31  C   UNL     1      51.590  17.129  20.152  0.00  0.00    -0.128 C 
ATOM     32  C   UNL     1      51.799  18.213  21.177  0.00  0.00    +0.072 C 
ATOM     33  C   UNL     1      51.015  15.799  20.568  0.00  0.00    +0.071 C 
ENDBRANCH  29  30
ENDBRANCH  28  29
ENDBRANCH  27  28
TORSDOF 8
ENDMDL
MODEL 2
REMARK VINA RESULT:      -5.3      1.709      2.745
REMARK  Name = ZINC95485967
REMARK  13 active torsions:
REMARK  status: ('A' for Active; 'I' for Inactive)
REMARK    1  A    between atoms: C1_1  and  C2_2
REMARK    2  A    between atoms: C4_4  and  O4_32
REMARK    3  A    between atoms: C7_7  and  C8_8
REMARK    4  A    between atoms: C8_8  and  C9_9
REMARK    5  A    between atoms: C9_9  and  C10_10
REMARK    6  A    between atoms: C11_11  and  C12_12
REMARK    7  A    between atoms: C11_11  and  C13_13
REMARK    8  A    between atoms: C17_17  and  O1_18
REMARK    9  A    between atoms: C21_23  and  C22_25
REMARK   10  A    between atoms: C22_25  and  C23_26
REMARK   11  A    between atoms: C23_26  and  C24_27
REMARK   12  A    between atoms: C25_28  and  C26_29
REMARK   13  A    between atoms: C25_28  and  C27_30
REMARK                            x       y       z     vdW  Elec       q    Type
REMARK                         _______ _______ _______ _____ _____    ______ ____
ROOT
ATOM      1  C   UNL     1      47.296  13.666  17.620  0.00  0.00    +0.100 C 
ATOM      2  C   UNL     1      46.648  14.710  18.490  0.00  0.00    -0.040 A 
ATOM      3  C   UNL     1      45.796  14.313  19.516  0.00  0.00    -0.013 A 
ATOM      4  C   UNL     1      45.189  15.248  20.327  0.00  0.00    +0.143 A 
ATOM      7  C   UNL     1      45.435  16.618  20.109  0.00  0.00    -0.124 A 
ATOM      8  C   UNL     1      46.307  17.012  19.064  0.00  0.00    +0.016 A 
ATOM      9  C   UNL     1      46.564  18.379  18.849  0.00  0.00    +0.016 A 
ATOM     10  C   UNL     1      45.984  19.329  19.631  0.00  0.00    -0.013 A 
ATOM     11  C   UNL     1      46.328  20.772  19.364  0.00  0.00    +0.017 C 
ATOM     18  C   UNL     1      45.326  21.682  20.029  0.00  0.00    +0.376 C 
ATOM     19  O   UNL     1      44.840  22.616  19.436  0.00  0.00    -0.429 OA
ATOM     20  C   UNL     1      44.949  21.386  21.469  0.00  0.00    +0.044 C 
ATOM     21  C   UNL     1      44.433  19.963  21.495  0.00  0.00    +0.403 C 
ATOM     22  O   UNL     1      43.484  19.662  22.190  0.00  0.00    -0.420 OA
ATOM     23  C   UNL     1      45.101  18.956  20.662  0.00  0.00    -0.212 A 
ATOM     24  C   UNL     1      44.831  17.603  20.909  0.00  0.00    +0.217 A 
ATOM     27  C   UNL     1      46.908  16.028  18.263  0.00  0.00    -0.093 A 
ENDROOT
BRANCH   4   5
ATOM      5  O   UNL     1      44.359  14.852  21.326  0.00  0.00    -0.477 OA
ATOM      6  H   UNL     1      44.392  13.903  21.510  0.00  0.00    +0.390 HD
ENDBRANCH   4   5
BRANCH  24  25
ATOM     25  O   UNL     1      43.992  17.247  21.910  0.00  0.00    -0.458 OA
ATOM     26  H   UNL     1      43.160  17.739  21.919  0.00  0.00    +0.394 HD
ENDBRANCH  24  25
BRANCH  11  12
ATOM     12  C   UNL     1      47.726  21.070  19.912  0.00  0.00    +0.061 C 
BRANCH  12  13
ATOM     13  C   UNL     1      48.773  20.723  18.852  0.00  0.00    +0.050 C 
BRANCH  13  14
ATOM     14  C   UNL     1      50.132  20.641  19.498  0.00  0.00    -0.060 C 
ATOM     15  C   UNL     1      51.196  21.026  18.838  0.00  0.00    -0.126 C 
ATOM     16  C   UNL     1      52.534  21.080  19.530  0.00  0.00    +0.073 C 
ATOM     17  C   UNL     1      51.083  21.414  17.386  0.00  0.00    +0.073 C 
ENDBRANCH  13  14
ENDBRANCH  12  13
ENDBRANCH  11  12
BRANCH  27  28
ATOM     28  C   UNL     1      47.839  16.431  17.148  0.00  0.00    +0.082 C 
BRANCH  28  29
ATOM     29  C   UNL     1      49.191  16.842  17.737  0.00  0.00    +0.055 C 
BRANCH  29  30
ATOM     30  C   UNL     1      49.928  17.707  16.748  0.00  0.00    -0.060 C 
ATOM     31  C   UNL     1      51.230  17.826  16.823  0.00  0.00    -0.128 C 
ATOM     32  C   UNL     1      51.982  18.568  15.749  0.00  0.00    +0.072 C 
ATOM     33  C   UNL     1      51.975  17.220  17.984  0.00  0.00    +0.071 C 
ENDBRANCH  29  30
ENDBRANCH  28  29
ENDBRANCH  27  28
TORSDOF 8
ENDMDL
MODEL 3
REMARK VINA RESULT:      -5.2      2.709      5.279
REMARK  Name = ZINC95485967
REMARK  13 active torsions:
REMARK  status: ('A' for Active; 'I' for Inactive)
REMARK    1  A    between atoms: C1_1  and  C2_2
REMARK    2  A    between atoms: C4_4  and  O4_32
REMARK    3  A    between atoms: C7_7  and  C8_8
REMARK    4  A    between atoms: C8_8  and  C9_9
REMARK    5  A    between atoms: C9_9  and  C10_10
REMARK    6  A    between atoms: C11_11  and  C12_12
REMARK    7  A    between atoms: C11_11  and  C13_13
REMARK    8  A    between atoms: C17_17  and  O1_18
REMARK    9  A    between atoms: C21_23  and  C22_25
REMARK   10  A    between atoms: C22_25  and  C23_26
REMARK   11  A    between atoms: C23_26  and  C24_27
REMARK   12  A    between atoms: C25_28  and  C26_29
REMARK   13  A    between atoms: C25_28  and  C27_30
REMARK                            x       y       z     vdW  Elec       q    Type
REMARK                         _______ _______ _______ _____ _____    ______ ____
ROOT
ATOM      1  C   UNL     1      47.589  12.688  18.434  0.00  0.00    +0.100 C 
ATOM      2  C   UNL     1      48.460  13.886  18.155  0.00  0.00    -0.040 A 
ATOM      3  C   UNL     1      49.477  13.786  17.211  0.00  0.00    -0.013 A 
ATOM      4  C   UNL     1      50.289  14.866  16.938  0.00  0.00    +0.143 A 
ATOM      7  C   UNL     1      50.083  16.079  17.624  0.00  0.00    -0.124 A 
ATOM      8  C   UNL     1      49.041  16.171  18.580  0.00  0.00    +0.016 A 
ATOM      9  C   UNL     1      48.826  17.383  19.261  0.00  0.00    +0.016 A 
ATOM     10  C   UNL     1      49.606  18.470  19.014  0.00  0.00    -0.013 A 
ATOM     11  C   UNL     1      49.298  19.746  19.758  0.00  0.00    +0.017 C 
ATOM     18  C   UNL     1      50.466  20.697  19.671  0.00  0.00    +0.376 C 
ATOM     19  O   UNL     1      50.874  21.275  20.650  0.00  0.00    -0.429 OA
ATOM     20  C   UNL     1      51.108  20.905  18.313  0.00  0.00    +0.044 C 
ATOM     21  C   UNL     1      51.537  19.538  17.825  0.00  0.00    +0.403 C 
ATOM     22  O   UNL     1      52.588  19.392  17.234  0.00  0.00    -0.420 OA
ATOM     23  C   UNL     1      50.657  18.391  18.080  0.00  0.00    -0.212 A 
ATOM     24  C   UNL     1      50.893  17.202  17.378  0.00  0.00    +0.217 A 
ATOM     27  C   UNL     1      48.235  15.049  18.827  0.00  0.00    -0.093 A 
ENDROOT
BRANCH   4   5
ATOM      5  O   UNL     1      51.280  14.761  16.015  0.00  0.00    -0.477 OA
ATOM      6  H   UNL     1      51.071  14.167  15.281  0.00  0.00    +0.390 HD
ENDBRANCH   4   5
BRANCH  24  25
ATOM     25  O   UNL     1      51.895  17.133  16.471  0.00  0.00    -0.458 OA
ATOM     26  H   UNL     1      51.594  17.007  15.561  0.00  0.00    +0.394 HD
ENDBRANCH  24  25
BRANCH  11  12
ATOM     12  C   UNL     1      48.061  20.404  19.144  0.00  0.00    +0.061 C 
BRANCH  12  13
ATOM     13  C   UNL     1      47.216  21.034  20.253  0.00  0.00    +0.050 C 
BRANCH  13  14
ATOM     14  C   UNL     1      45.955  21.607  19.659  0.00  0.00    -0.060 C 
ATOM     15  C   UNL     1      45.047  22.140  20.437  0.00  0.00    -0.126 C 
ATOM     16  C   UNL     1      43.855  22.840  19.836  0.00  0.00    +0.073 C 
ATOM     17  C   UNL     1      45.192  22.051  21.935  0.00  0.00    +0.073 C 
ENDBRANCH  13  14
ENDBRANCH  12  13
ENDBRANCH  11  12
BRANCH  27  28
ATOM     28  C   UNL     1      47.122  15.131  19.840  0.00  0.00    +0.082 C 
BRANCH  28  29
ATOM     29  C   UNL     1      45.823  15.535  19.138  0.00  0.00    +0.055 C 
BRANCH  29  30
ATOM     30  C   UNL     1      45.050  16.483  20.019  0.00  0.00    -0.060 C 
ATOM     31  C   UNL     1      44.808  17.704  19.613  0.00  0.00    -0.128 C 
ATOM     32  C   UNL     1      43.911  18.603  20.424  0.00  0.00    +0.072 C 
ATOM     33  C   UNL     1      45.427  18.210  18.335  0.00  0.00    +0.071 C 
ENDBRANCH  29  30
ENDBRANCH  28  29
ENDBRANCH  27  28
TORSDOF 8
ENDMDL
MODEL 4
REMARK VINA RESULT:      -5.2      2.390      6.383
REMARK  Name = ZINC95485967
REMARK  13 active torsions:
REMARK  status: ('A' for Active; 'I' for Inactive)
REMARK    1  A    between atoms: C1_1  and  C2_2
REMARK    2  A    between atoms: C4_4  and  O4_32
REMARK    3  A    between atoms: C7_7  and  C8_8
REMARK    4  A    between atoms: C8_8  and  C9_9
REMARK    5  A    between atoms: C9_9  and  C10_10
REMARK    6  A    between atoms: C11_11  and  C12_12
REMARK    7  A    between atoms: C11_11  and  C13_13
REMARK    8  A    between atoms: C17_17  and  O1_18
REMARK    9  A    between atoms: C21_23  and  C22_25
REMARK   10  A    between atoms: C22_25  and  C23_26
REMARK   11  A    between atoms: C23_26  and  C24_27
REMARK   12  A    between atoms: C25_28  and  C26_29
REMARK   13  A    between atoms: C25_28  and  C27_30
REMARK                            x       y       z     vdW  Elec       q    Type
REMARK                         _______ _______ _______ _____ _____    ______ ____
ROOT
ATOM      1  C   UNL     1      50.570  21.112  18.518  0.00  0.00    +0.100 C 
ATOM      2  C   UNL     1      50.386  19.650  18.203  0.00  0.00    -0.040 A 
ATOM      3  C   UNL     1      51.304  19.008  17.378  0.00  0.00    -0.013 A 
ATOM      4  C   UNL     1      51.159  17.672  17.072  0.00  0.00    +0.143 A 
ATOM      7  C   UNL     1      50.068  16.955  17.602  0.00  0.00    -0.124 A 
ATOM      8  C   UNL     1      49.141  17.617  18.445  0.00  0.00    +0.016 A 
ATOM      9  C   UNL     1      48.056  16.902  18.984  0.00  0.00    +0.016 A 
ATOM     10  C   UNL     1      47.883  15.582  18.706  0.00  0.00    -0.013 A 
ATOM     11  C   UNL     1      46.715  14.872  19.344  0.00  0.00    +0.017 C 
ATOM     18  C   UNL     1      46.447  13.567  18.637  0.00  0.00    +0.376 C 
ATOM     19  O   UNL     1      45.325  13.245  18.324  0.00  0.00    -0.429 OA
ATOM     20  C   UNL     1      47.632  12.671  18.332  0.00  0.00    +0.044 C 
ATOM     21  C   UNL     1      48.598  13.498  17.511  0.00  0.00    +0.403 C 
ATOM     22  O   UNL     1      49.206  13.002  16.584  0.00  0.00    -0.420 OA
ATOM     23  C   UNL     1      48.785  14.913  17.857  0.00  0.00    -0.212 A 
ATOM     24  C   UNL     1      49.881  15.592  17.310  0.00  0.00    +0.217 A 
ATOM     27  C   UNL     1      49.326  18.978  18.734  0.00  0.00    -0.093 A 
ENDROOT
BRANCH   4   5
ATOM      5  O   UNL     1      52.059  17.053  16.266  0.00  0.00    -0.477 OA
ATOM      6  H   UNL     1      51.791  16.166  15.987  0.00  0.00    +0.390 HD
ENDBRANCH   4   5
BRANCH  24  25
ATOM     25  O   UNL     1      50.754  14.942  16.505  0.00  0.00    -0.458 OA
ATOM     26  H   UNL     1      50.405  14.745  15.625  0.00  0.00    +0.394 HD
ENDBRANCH  24  25
BRANCH  11  12
ATOM     12  C   UNL     1      47.033  14.595  20.815  0.00  0.00    +0.061 C 
BRANCH  12  13
ATOM     13  C   UNL     1      45.934  15.196  21.694  0.00  0.00    +0.050 C 
BRANCH  13  14
ATOM     14  C   UNL     1      46.315  16.600  22.085  0.00  0.00    -0.060 C 
ATOM     15  C   UNL     1      45.542  17.605  21.756  0.00  0.00    -0.126 C 
ATOM     16  C   UNL     1      45.847  18.989  22.267  0.00  0.00    +0.073 C 
ATOM     17  C   UNL     1      44.348  17.377  20.865  0.00  0.00    +0.073 C 
ENDBRANCH  13  14
ENDBRANCH  12  13
ENDBRANCH  11  12
BRANCH  27  28
ATOM     28  C   UNL     1      48.350  19.697  19.629  0.00  0.00    +0.082 C 
BRANCH  28  29
ATOM     29  C   UNL     1      47.434  20.579  18.779  0.00  0.00    +0.055 C 
BRANCH  29  30
ATOM     30  C   UNL     1      46.068  19.947  18.691  0.00  0.00    -0.060 C 
ATOM     31  C   UNL     1      44.999  20.657  18.952  0.00  0.00    -0.128 C 
ATOM     32  C   UNL     1      43.631  20.070  18.720  0.00  0.00    +0.072 C 
ATOM     33  C   UNL     1      45.139  22.060  19.483  0.00  0.00    +0.071 C 
ENDBRANCH  29  30
ENDBRANCH  28  29
ENDBRANCH  27  28
TORSDOF 8
ENDMDL
MODEL 5
REMARK VINA RESULT:      -5.0      1.910      5.745
REMARK  Name = ZINC95485967
REMARK  13 active torsions:
REMARK  status: ('A' for Active; 'I' for Inactive)
REMARK    1  A    between atoms: C1_1  and  C2_2
REMARK    2  A    between atoms: C4_4  and  O4_32
REMARK    3  A    between atoms: C7_7  and  C8_8
REMARK    4  A    between atoms: C8_8  and  C9_9
REMARK    5  A    between atoms: C9_9  and  C10_10
REMARK    6  A    between atoms: C11_11  and  C12_12
REMARK    7  A    between atoms: C11_11  and  C13_13
REMARK    8  A    between atoms: C17_17  and  O1_18
REMARK    9  A    between atoms: C21_23  and  C22_25
REMARK   10  A    between atoms: C22_25  and  C23_26
REMARK   11  A    between atoms: C23_26  and  C24_27
REMARK   12  A    between atoms: C25_28  and  C26_29
REMARK   13  A    between atoms: C25_28  and  C27_30
REMARK                            x       y       z     vdW  Elec       q    Type
REMARK                         _______ _______ _______ _____ _____    ______ ____
ROOT
ATOM      1  C   UNL     1      45.126  22.490  19.653  0.00  0.00    +0.100 C 
ATOM      2  C   UNL     1      44.927  21.074  20.126  0.00  0.00    -0.040 A 
ATOM      3  C   UNL     1      43.866  20.779  20.976  0.00  0.00    -0.013 A 
ATOM      4  C   UNL     1      43.662  19.492  21.425  0.00  0.00    +0.143 A 
ATOM      7  C   UNL     1      44.540  18.469  21.018  0.00  0.00    -0.124 A 
ATOM      8  C   UNL     1      45.616  18.778  20.148  0.00  0.00    +0.016 A 
ATOM      9  C   UNL     1      46.490  17.758  19.731  0.00  0.00    +0.016 A 
ATOM     10  C   UNL     1      46.317  16.476  20.152  0.00  0.00    -0.013 A 
ATOM     11  C   UNL     1      47.273  15.428  19.640  0.00  0.00    +0.017 C 
ATOM     18  C   UNL     1      47.191  14.184  20.490  0.00  0.00    +0.376 C 
ATOM     19  O   UNL     1      48.190  13.628  20.879  0.00  0.00    -0.429 OA
ATOM     20  C   UNL     1      45.813  13.656  20.839  0.00  0.00    +0.044 C 
ATOM     21  C   UNL     1      45.080  14.786  21.530  0.00  0.00    +0.403 C 
ATOM     22  O   UNL     1      44.355  14.566  22.478  0.00  0.00    -0.420 OA
ATOM     23  C   UNL     1      45.264  16.154  21.030  0.00  0.00    -0.212 A 
ATOM     24  C   UNL     1      44.371  17.145  21.458  0.00  0.00    +0.217 A 
ATOM     27  C   UNL     1      45.787  20.101  19.711  0.00  0.00    -0.093 A 
ENDROOT
BRANCH   4   5
ATOM      5  O   UNL     1      42.624  19.214  22.255  0.00  0.00    -0.477 OA
ATOM      6  H   UNL     1      41.800  19.661  22.017  0.00  0.00    +0.390 HD
ENDBRANCH   4   5
BRANCH  24  25
ATOM     25  O   UNL     1      43.351  16.829  22.291  0.00  0.00    -0.458 OA
ATOM     26  H   UNL     1      43.630  16.380  23.101  0.00  0.00    +0.394 HD
ENDBRANCH  24  25
BRANCH  11  12
ATOM     12  C   UNL     1      46.914  15.078  18.195  0.00  0.00    +0.061 C 
BRANCH  12  13
ATOM     13  C   UNL     1      48.128  15.319  17.295  0.00  0.00    +0.050 C 
BRANCH  13  14
ATOM     14  C   UNL     1      49.326  15.651  18.148  0.00  0.00    -0.060 C 
ATOM     15  C   UNL     1      49.909  16.818  18.034  0.00  0.00    -0.126 C 
ATOM     16  C   UNL     1      51.014  17.205  18.982  0.00  0.00    +0.073 C 
ATOM     17  C   UNL     1      49.475  17.774  16.952  0.00  0.00    +0.073 C 
ENDBRANCH  13  14
ENDBRANCH  12  13
ENDBRANCH  11  12
BRANCH  27  28
ATOM     28  C   UNL     1      46.925  20.447  18.786  0.00  0.00    +0.082 C 
BRANCH  28  29
ATOM     29  C   UNL     1      48.184  20.729  19.609  0.00  0.00    +0.055 C 
BRANCH  29  30
ATOM     30  C   UNL     1      49.358  20.918  18.684  0.00  0.00    -0.060 C 
ATOM     31  C   UNL     1      50.579  20.817  19.146  0.00  0.00    -0.128 C 
ATOM     32  C   UNL     1      51.749  20.857  18.197  0.00  0.00    +0.072 C 
ATOM     33  C   UNL     1      50.814  20.661  20.626  0.00  0.00    +0.071 C 
ENDBRANCH  29  30
ENDBRANCH  28  29
ENDBRANCH  27  28
TORSDOF 8
ENDMDL
MODEL 6
REMARK VINA RESULT:      -4.8      2.701      7.305
REMARK  Name = ZINC95485967
REMARK  13 active torsions:
REMARK  status: ('A' for Active; 'I' for Inactive)
REMARK    1  A    between atoms: C1_1  and  C2_2
REMARK    2  A    between atoms: C4_4  and  O4_32
REMARK    3  A    between atoms: C7_7  and  C8_8
REMARK    4  A    between atoms: C8_8  and  C9_9
REMARK    5  A    between atoms: C9_9  and  C10_10
REMARK    6  A    between atoms: C11_11  and  C12_12
REMARK    7  A    between atoms: C11_11  and  C13_13
REMARK    8  A    between atoms: C17_17  and  O1_18
REMARK    9  A    between atoms: C21_23  and  C22_25
REMARK   10  A    between atoms: C22_25  and  C23_26
REMARK   11  A    between atoms: C23_26  and  C24_27
REMARK   12  A    between atoms: C25_28  and  C26_29
REMARK   13  A    between atoms: C25_28  and  C27_30
REMARK                            x       y       z     vdW  Elec       q    Type
REMARK                         _______ _______ _______ _____ _____    ______ ____
ROOT
ATOM      1  C   UNL     1      47.665  21.331  20.306  0.00  0.00    +0.100 C 
ATOM      2  C   UNL     1      48.536  20.398  19.506  0.00  0.00    -0.040 A 
ATOM      3  C   UNL     1      49.716  20.876  18.946  0.00  0.00    -0.013 A 
ATOM      4  C   UNL     1      50.531  20.044  18.209  0.00  0.00    +0.143 A 
ATOM      7  C   UNL     1      50.160  18.698  18.024  0.00  0.00    -0.124 A 
ATOM      8  C   UNL     1      48.959  18.219  18.602  0.00  0.00    +0.016 A 
ATOM      9  C   UNL     1      48.590  16.873  18.428  0.00  0.00    +0.016 A 
ATOM     10  C   UNL     1      49.371  16.023  17.709  0.00  0.00    -0.013 A 
ATOM     11  C   UNL     1      48.929  14.586  17.589  0.00  0.00    +0.017 C 
ATOM     18  C   UNL     1      49.668  13.902  16.465  0.00  0.00    +0.376 C 
ATOM     19  O   UNL     1      49.084  13.217  15.660  0.00  0.00    -0.429 OA
ATOM     20  C   UNL     1      51.169  14.104  16.381  0.00  0.00    +0.044 C 
ATOM     21  C   UNL     1      51.399  15.598  16.299  0.00  0.00    +0.403 C 
ATOM     22  O   UNL     1      52.262  16.053  15.575  0.00  0.00    -0.420 OA
ATOM     23  C   UNL     1      50.559  16.486  17.112  0.00  0.00    -0.212 A 
ATOM     24  C   UNL     1      50.961  17.818  17.273  0.00  0.00    +0.217 A 
ATOM     27  C   UNL     1      48.158  19.098  19.348  0.00  0.00    -0.093 A 
ENDROOT
BRANCH   4   5
ATOM      5  O   UNL     1      51.681  20.519  17.665  0.00  0.00    -0.477 OA
ATOM      6  H   UNL     1      51.976  20.032  16.883  0.00  0.00    +0.390 HD
ENDBRANCH   4   5
BRANCH  24  25
ATOM     25  O   UNL     1      52.111  18.257  16.710  0.00  0.00    -0.458 OA
ATOM     26  H   UNL     1      52.081  18.308  15.745  0.00  0.00    +0.394 HD
ENDBRANCH  24  25
BRANCH  11  12
ATOM     12  C   UNL     1      49.218  13.856  18.903  0.00  0.00    +0.061 C 
BRANCH  12  13
ATOM     13  C   UNL     1      47.910  13.315  19.483  0.00  0.00    +0.050 C 
BRANCH  13  14
ATOM     14  C   UNL     1      47.495  14.160  20.659  0.00  0.00    -0.060 C 
ATOM     15  C   UNL     1      46.378  14.843  20.615  0.00  0.00    -0.126 C 
ATOM     16  C   UNL     1      45.891  15.573  21.840  0.00  0.00    +0.073 C 
ATOM     17  C   UNL     1      45.580  14.899  19.338  0.00  0.00    +0.073 C 
ENDBRANCH  13  14
ENDBRANCH  12  13
ENDBRANCH  11  12
BRANCH  27  28
ATOM     28  C   UNL     1      46.878  18.605  19.972  0.00  0.00    +0.082 C 
BRANCH  28  29
ATOM     29  C   UNL     1      45.749  18.678  18.941  0.00  0.00    +0.055 C 
BRANCH  29  30
ATOM     30  C   UNL     1      44.424  18.478  19.632  0.00  0.00    -0.060 C 
ATOM     31  C   UNL     1      43.567  19.465  19.704  0.00  0.00    -0.128 C 
ATOM     32  C   UNL     1      42.187  19.226  20.260  0.00  0.00    +0.072 C 
ATOM     33  C   UNL     1      43.961  20.841  19.230  0.00  0.00    +0.071 C 
ENDBRANCH  29  30
ENDBRANCH  28  29
ENDBRANCH  27  28
TORSDOF 8
ENDMDL
MODEL 7
REMARK VINA RESULT:      -4.7      1.415      5.527
REMARK  Name = ZINC95485967
REMARK  13 active torsions:
REMARK  status: ('A' for Active; 'I' for Inactive)
REMARK    1  A    between atoms: C1_1  and  C2_2
REMARK    2  A    between atoms: C4_4  and  O4_32
REMARK    3  A    between atoms: C7_7  and  C8_8
REMARK    4  A    between atoms: C8_8  and  C9_9
REMARK    5  A    between atoms: C9_9  and  C10_10
REMARK    6  A    between atoms: C11_11  and  C12_12
REMARK    7  A    between atoms: C11_11  and  C13_13
REMARK    8  A    between atoms: C17_17  and  O1_18
REMARK    9  A    between atoms: C21_23  and  C22_25
REMARK   10  A    between atoms: C22_25  and  C23_26
REMARK   11  A    between atoms: C23_26  and  C24_27
REMARK   12  A    between atoms: C25_28  and  C26_29
REMARK   13  A    between atoms: C25_28  and  C27_30
REMARK                            x       y       z     vdW  Elec       q    Type
REMARK                         _______ _______ _______ _____ _____    ______ ____
ROOT
ATOM      1  C   UNL     1      51.228  21.071  17.891  0.00  0.00    +0.100 C 
ATOM      2  C   UNL     1      50.073  20.243  18.393  0.00  0.00    -0.040 A 
ATOM      3  C   UNL     1      49.118  20.831  19.217  0.00  0.00    -0.013 A 
ATOM      4  C   UNL     1      48.053  20.097  19.691  0.00  0.00    +0.143 A 
ATOM      7  C   UNL     1      47.935  18.739  19.337  0.00  0.00    -0.124 A 
ATOM      8  C   UNL     1      48.910  18.151  18.494  0.00  0.00    +0.016 A 
ATOM      9  C   UNL     1      48.791  16.797  18.130  0.00  0.00    +0.016 A 
ATOM     10  C   UNL     1      47.751  16.043  18.578  0.00  0.00    -0.013 A 
ATOM     11  C   UNL     1      47.670  14.607  18.122  0.00  0.00    +0.017 C 
ATOM     18  C   UNL     1      46.720  13.832  19.000  0.00  0.00    +0.376 C 
ATOM     19  O   UNL     1      47.017  12.745  19.434  0.00  0.00    -0.429 OA
ATOM     20  C   UNL     1      45.378  14.463  19.319  0.00  0.00    +0.044 C 
ATOM     21  C   UNL     1      45.673  15.803  19.958  0.00  0.00    +0.403 C 
ATOM     22  O   UNL     1      45.005  16.206  20.888  0.00  0.00    -0.420 OA
ATOM     23  C   UNL     1      46.783  16.606  19.430  0.00  0.00    -0.212 A 
ATOM     24  C   UNL     1      46.866  17.954  19.805  0.00  0.00    +0.217 A 
ATOM     27  C   UNL     1      49.979  18.933  18.030  0.00  0.00    -0.093 A 
ENDROOT
BRANCH   4   5
ATOM      5  O   UNL     1      47.125  20.678  20.495  0.00  0.00    -0.477 OA
ATOM      6  H   UNL     1      47.412  20.785  21.413  0.00  0.00    +0.390 HD
ENDBRANCH   4   5
BRANCH  24  25
ATOM     25  O   UNL     1      45.926  18.496  20.614  0.00  0.00    -0.458 OA
ATOM     26  H   UNL     1      45.625  17.906  21.318  0.00  0.00    +0.394 HD
ENDBRANCH  24  25
BRANCH  11  12
ATOM     12  C   UNL     1      47.175  14.563  16.675  0.00  0.00    +0.061 C 
BRANCH  12  13
ATOM     13  C   UNL     1      47.775  13.345  15.969  0.00  0.00    +0.050 C 
BRANCH  13  14
ATOM     14  C   UNL     1      49.274  13.364  16.122  0.00  0.00    -0.060 C 
ATOM     15  C   UNL     1      50.042  13.125  15.089  0.00  0.00    -0.126 C 
ATOM     16  C   UNL     1      51.536  13.284  15.207  0.00  0.00    +0.073 C 
ATOM     17  C   UNL     1      49.432  12.690  13.781  0.00  0.00    +0.073 C 
ENDBRANCH  13  14
ENDBRANCH  12  13
ENDBRANCH  11  12
BRANCH  27  28
ATOM     28  C   UNL     1      51.024  18.324  17.132  0.00  0.00    +0.082 C 
BRANCH  28  29
ATOM     29  C   UNL     1      52.185  17.802  17.982  0.00  0.00    +0.055 C 
BRANCH  29  30
ATOM     30  C   UNL     1      52.240  16.299  17.890  0.00  0.00    -0.060 C 
ATOM     31  C   UNL     1      51.953  15.567  18.938  0.00  0.00    -0.128 C 
ATOM     32  C   UNL     1      51.862  14.069  18.808  0.00  0.00    +0.072 C 
ATOM     33  C   UNL     1      51.714  16.224  20.273  0.00  0.00    +0.071 C 
ENDBRANCH  29  30
ENDBRANCH  28  29
ENDBRANCH  27  28
TORSDOF 8
ENDMDL
MODEL 8
REMARK VINA RESULT:      -4.7      2.869      5.199
REMARK  Name = ZINC95485967
REMARK  13 active torsions:
REMARK  status: ('A' for Active; 'I' for Inactive)
REMARK    1  A    between atoms: C1_1  and  C2_2
REMARK    2  A    between atoms: C4_4  and  O4_32
REMARK    3  A    between atoms: C7_7  and  C8_8
REMARK    4  A    between atoms: C8_8  and  C9_9
REMARK    5  A    between atoms: C9_9  and  C10_10
REMARK    6  A    between atoms: C11_11  and  C12_12
REMARK    7  A    between atoms: C11_11  and  C13_13
REMARK    8  A    between atoms: C17_17  and  O1_18
REMARK    9  A    between atoms: C21_23  and  C22_25
REMARK   10  A    between atoms: C22_25  and  C23_26
REMARK   11  A    between atoms: C23_26  and  C24_27
REMARK   12  A    between atoms: C25_28  and  C26_29
REMARK   13  A    between atoms: C25_28  and  C27_30
REMARK                            x       y       z     vdW  Elec       q    Type
REMARK                         _______ _______ _______ _____ _____    ______ ____
ROOT
ATOM      1  C   UNL     1      46.998  13.270  17.490  0.00  0.00    +0.100 C 
ATOM      2  C   UNL     1      48.046  14.352  17.532  0.00  0.00    -0.040 A 
ATOM      3  C   UNL     1      49.239  14.174  16.839  0.00  0.00    -0.013 A 
ATOM      4  C   UNL     1      50.216  15.147  16.861  0.00  0.00    +0.143 A 
ATOM      7  C   UNL     1      49.998  16.330  17.594  0.00  0.00    -0.124 A 
ATOM      8  C   UNL     1      48.778  16.503  18.293  0.00  0.00    +0.016 A 
ATOM      9  C   UNL     1      48.553  17.686  19.019  0.00  0.00    +0.016 A 
ATOM     10  C   UNL     1      49.493  18.669  19.061  0.00  0.00    -0.013 A 
ATOM     11  C   UNL     1      49.172  19.924  19.833  0.00  0.00    +0.017 C 
ATOM     18  C   UNL     1      50.431  20.709  20.105  0.00  0.00    +0.376 C 
ATOM     19  O   UNL     1      50.660  21.160  21.201  0.00  0.00    -0.429 OA
ATOM     20  C   UNL     1      51.398  20.913  18.954  0.00  0.00    +0.044 C 
ATOM     21  C   UNL     1      51.764  19.534  18.449  0.00  0.00    +0.403 C 
ATOM     22  O   UNL     1      52.900  19.284  18.101  0.00  0.00    -0.420 OA
ATOM     23  C   UNL     1      50.718  18.506  18.387  0.00  0.00    -0.212 A 
ATOM     24  C   UNL     1      50.972  17.343  17.647  0.00  0.00    +0.217 A 
ATOM     27  C   UNL     1      47.808  15.489  18.243  0.00  0.00    -0.093 A 
ENDROOT
BRANCH   4   5
ATOM      5  O   UNL     1      51.378  14.965  16.182  0.00  0.00    -0.477 OA
ATOM      6  H   UNL     1      52.030  15.664  16.328  0.00  0.00    +0.390 HD
ENDBRANCH   4   5
BRANCH  24  25
ATOM     25  O   UNL     1      52.145  17.196  16.989  0.00  0.00    -0.458 OA
ATOM     26  H   UNL     1      52.876  17.700  17.371  0.00  0.00    +0.394 HD
ENDBRANCH  24  25
BRANCH  11  12
ATOM     12  C   UNL     1      48.203  20.784  19.020  0.00  0.00    +0.061 C 
BRANCH  12  13
ATOM     13  C   UNL     1      46.941  21.049  19.844  0.00  0.00    +0.050 C 
BRANCH  13  14
ATOM     14  C   UNL     1      45.842  20.124  19.389  0.00  0.00    -0.060 C 
ATOM     15  C   UNL     1      45.351  19.233  20.215  0.00  0.00    -0.126 C 
ATOM     16  C   UNL     1      44.158  18.407  19.810  0.00  0.00    +0.073 C 
ATOM     17  C   UNL     1      45.980  19.035  21.570  0.00  0.00    +0.073 C 
ENDBRANCH  13  14
ENDBRANCH  12  13
ENDBRANCH  11  12
BRANCH  27  28
ATOM     28  C   UNL     1      46.504  15.658  18.980  0.00  0.00    +0.082 C 
BRANCH  28  29
ATOM     29  C   UNL     1      46.764  15.633  20.488  0.00  0.00    +0.055 C 
BRANCH  29  30
ATOM     30  C   UNL     1      45.732  14.766  21.162  0.00  0.00    -0.060 C 
ATOM     31  C   UNL     1      46.085  13.628  21.704  0.00  0.00    -0.128 C 
ATOM     32  C   UNL     1      45.087  12.833  22.505  0.00  0.00    +0.072 C 
ATOM     33  C   UNL     1      47.491  13.113  21.526  0.00  0.00    +0.071 C 
ENDBRANCH  29  30
ENDBRANCH  28  29
ENDBRANCH  27  28
TORSDOF 8
ENDMDL
MODEL 9
REMARK VINA RESULT:      -4.6      1.585      5.589
REMARK  Name = ZINC95485967
REMARK  13 active torsions:
REMARK  status: ('A' for Active; 'I' for Inactive)
REMARK    1  A    between atoms: C1_1  and  C2_2
REMARK    2  A    between atoms: C4_4  and  O4_32
REMARK    3  A    between atoms: C7_7  and  C8_8
REMARK    4  A    between atoms: C8_8  and  C9_9
REMARK    5  A    between atoms: C9_9  and  C10_10
REMARK    6  A    between atoms: C11_11  and  C12_12
REMARK    7  A    between atoms: C11_11  and  C13_13
REMARK    8  A    between atoms: C17_17  and  O1_18
REMARK    9  A    between atoms: C21_23  and  C22_25
REMARK   10  A    between atoms: C22_25  and  C23_26
REMARK   11  A    between atoms: C23_26  and  C24_27
REMARK   12  A    between atoms: C25_28  and  C26_29
REMARK   13  A    between atoms: C25_28  and  C27_30
REMARK                            x       y       z     vdW  Elec       q    Type
REMARK                         _______ _______ _______ _____ _____    ______ ____
ROOT
ATOM      1  C   UNL     1      51.401  21.950  22.438  0.00  0.00    +0.100 C 
ATOM      2  C   UNL     1      50.231  21.168  21.899  0.00  0.00    -0.040 A 
ATOM      3  C   UNL     1      48.937  21.586  22.190  0.00  0.00    -0.013 A 
ATOM      4  C   UNL     1      47.849  20.888  21.711  0.00  0.00    +0.143 A 
ATOM      7  C   UNL     1      48.056  19.741  20.920  0.00  0.00    -0.124 A 
ATOM      8  C   UNL     1      49.378  19.327  20.625  0.00  0.00    +0.016 A 
ATOM      9  C   UNL     1      49.590  18.187  19.827  0.00  0.00    +0.016 A 
ATOM     10  C   UNL     1      48.539  17.476  19.335  0.00  0.00    -0.013 A 
ATOM     11  C   UNL     1      48.840  16.284  18.461  0.00  0.00    +0.017 C 
ATOM     18  C   UNL     1      47.621  15.404  18.338  0.00  0.00    +0.376 C 
ATOM     19  O   UNL     1      47.700  14.206  18.468  0.00  0.00    -0.429 OA
ATOM     20  C   UNL     1      46.292  16.075  18.045  0.00  0.00    +0.044 C 
ATOM     21  C   UNL     1      46.070  17.090  19.145  0.00  0.00    +0.403 C 
ATOM     22  O   UNL     1      44.964  17.262  19.616  0.00  0.00    -0.420 OA
ATOM     23  C   UNL     1      47.219  17.864  19.632  0.00  0.00    -0.212 A 
ATOM     24  C   UNL     1      46.973  18.998  20.417  0.00  0.00    +0.217 A 
ATOM     27  C   UNL     1      50.459  20.066  21.130  0.00  0.00    -0.093 A 
ENDROOT
BRANCH   4   5
ATOM      5  O   UNL     1      46.589  21.303  22.000  0.00  0.00    -0.477 OA
ATOM      6  H   UNL     1      45.909  20.633  21.842  0.00  0.00    +0.390 HD
ENDBRANCH   4   5
BRANCH  24  25
ATOM     25  O   UNL     1      45.703  19.376  20.689  0.00  0.00    -0.458 OA
ATOM     26  H   UNL     1      45.596  19.804  21.550  0.00  0.00    +0.394 HD
ENDBRANCH  24  25
BRANCH  11  12
ATOM     12  C   UNL     1      49.259  16.767  17.071  0.00  0.00    +0.061 C 
BRANCH  12  13
ATOM     13  C   UNL     1      50.765  16.566  16.894  0.00  0.00    +0.050 C 
BRANCH  13  14
ATOM     14  C   UNL     1      51.163  15.230  17.466  0.00  0.00    -0.060 C 
ATOM     15  C   UNL     1      52.072  15.164  18.406  0.00  0.00    -0.126 C 
ATOM     16  C   UNL     1      52.368  13.848  19.078  0.00  0.00    +0.073 C 
ATOM     17  C   UNL     1      52.823  16.405  18.816  0.00  0.00    +0.073 C 
ENDBRANCH  13  14
ENDBRANCH  12  13
ENDBRANCH  11  12
BRANCH  27  28
ATOM     28  C   UNL     1      51.872  19.640  20.825  0.00  0.00    +0.082 C 
BRANCH  28  29
ATOM     29  C   UNL     1      52.484  20.600  19.803  0.00  0.00    +0.055 C 
BRANCH  29  30
ATOM     30  C   UNL     1      52.605  19.907  18.471  0.00  0.00    -0.060 C 
ATOM     31  C   UNL     1      51.831  20.260  17.475  0.00  0.00    -0.128 C 
ATOM     32  C   UNL     1      52.051  19.673  16.105  0.00  0.00    +0.072 C 
ATOM     33  C   UNL     1      50.721  21.254  17.701  0.00  0.00    +0.071 C 
ENDBRANCH  29  30
ENDBRANCH  28  29
ENDBRANCH  27  28
TORSDOF 8
ENDMDL
