MODEL 1
REMARK VINA RESULT:      -7.9      0.000      0.000
REMARK  Name = ZINC95486278
REMARK  11 active torsions:
REMARK  status: ('A' for Active; 'I' for Inactive)
REMARK    1  A    between atoms: C1_1  and  C2_2
REMARK    2  A    between atoms: C5_5  and  C30_41
REMARK    3  A    between atoms: C10_11  and  C22_28
REMARK    4  A    between atoms: C14_16  and  C21_27
REMARK    5  A    between atoms: C15_17  and  O2_26
REMARK    6  A    between atoms: C17_20  and  O1_25
REMARK    7  A    between atoms: C18_22  and  C19_23
REMARK    8  A    between atoms: C18_22  and  C20_24
REMARK    9  A    between atoms: C25_32  and  C28_37
REMARK   10  A    between atoms: C25_32  and  C29_38
REMARK   11  A    between atoms: C26_33  and  O3_36
REMARK                            x       y       z     vdW  Elec       q    Type
REMARK                         _______ _______ _______ _____ _____    ______ ____
ROOT
ATOM      1  C   UNL     1      51.106  20.187  20.635  0.00  0.00    +0.017 C 
ATOM      2  C   UNL     1      50.786  18.980  19.754  0.00  0.00    -0.033 C 
ATOM      3  C   UNL     1      50.153  17.884  20.619  0.00  0.00    +0.000 C 
ATOM      4  C   UNL     1      48.919  18.418  21.346  0.00  0.00    +0.015 C 
ATOM      5  C   UNL     1      47.881  18.973  20.380  0.00  0.00    +0.000 C 
ATOM      6  C   UNL     1      47.289  17.783  19.614  0.00  0.00    +0.019 C 
ATOM      7  C   UNL     1      48.513  19.857  19.338  0.00  0.00    -0.079 C 
ATOM      8  C   UNL     1      47.997  20.984  18.953  0.00  0.00    -0.088 C 
ATOM      9  C   UNL     1      46.696  21.537  19.465  0.00  0.00    +0.069 C 
ATOM     10  C   UNL     1      45.868  20.425  20.118  0.00  0.00    +0.018 C 
ATOM     11  C   UNL     1      44.559  20.947  20.671  0.00  0.00    -0.018 C 
ATOM     12  C   UNL     1      44.776  22.127  21.642  0.00  0.00    +0.024 C 
ATOM     13  C   UNL     1      43.653  21.514  19.568  0.00  0.00    +0.169 C 
ATOM     16  C   UNL     1      43.226  20.398  18.622  0.00  0.00    -0.039 C 
ATOM     17  C   UNL     1      42.296  19.469  19.400  0.00  0.00    +0.172 C 
ATOM     20  C   UNL     1      43.024  18.860  20.601  0.00  0.00    -0.036 C 
ATOM     21  C   UNL     1      41.926  18.241  21.501  0.00  0.00    +0.023 C 
ATOM     22  C   UNL     1      43.881  17.703  20.088  0.00  0.00    +0.033 C 
ATOM     23  C   UNL     1      43.791  19.866  21.424  0.00  0.00    +0.005 C 
ATOM     24  C   UNL     1      44.663  19.246  22.505  0.00  0.00    +0.011 C 
ATOM     25  C   UNL     1      45.991  18.711  21.993  0.00  0.00    +0.006 C 
ATOM     26  C   UNL     1      46.755  19.699  21.126  0.00  0.00    -0.018 C 
ATOM     27  C   UNL     1      47.430  20.722  22.059  0.00  0.00    +0.012 C 
ATOM     28  C   UNL     1      52.063  18.450  19.112  0.00  0.00    -0.011 C 
ATOM     29  C   UNL     1      52.649  19.407  18.087  0.00  0.00    +0.174 C 
ATOM     32  C   UNL     1      51.632  19.894  17.066  0.00  0.00    -0.117 C 
ATOM     36  C   UNL     1      52.258  21.044  16.258  0.00  0.00    +0.021 C 
ATOM     37  C   UNL     1      50.360  20.409  17.735  0.00  0.00    +0.027 C 
ATOM     38  C   UNL     1      49.780  19.359  18.668  0.00  0.00    +0.071 C 
ENDROOT
BRANCH  32  33
ATOM     33  C   UNL     1      51.295  18.777  16.109  0.00  0.00    +0.506 C 
ATOM     34  O   UNL     1      50.182  18.279  16.120  0.00  0.00    -0.684 OA
ATOM     35  O   UNL     1      52.136  18.372  15.323  0.00  0.00    -0.696 OA
ENDBRANCH  32  33
BRANCH  13  14
ATOM     14  O   UNL     1      44.259  22.589  18.872  0.00  0.00    -0.550 OA
ATOM     15  H   UNL     1      43.689  22.997  18.206  0.00  0.00    +0.370 HD
ENDBRANCH  13  14
BRANCH  17  18
ATOM     18  O   UNL     1      41.152  20.194  19.852  0.00  0.00    -0.561 OA
ATOM     19  H   UNL     1      41.040  20.194  20.812  0.00  0.00    +0.372 HD
ENDBRANCH  17  18
BRANCH  29  30
ATOM     30  O   UNL     1      53.273  20.525  18.724  0.00  0.00    -0.563 OA
ATOM     31  H   UNL     1      53.173  20.536  19.686  0.00  0.00    +0.359 HD
ENDBRANCH  29  30
TORSDOF 4
ENDMDL
MODEL 2
REMARK VINA RESULT:      -6.8      1.362      1.924
REMARK  Name = ZINC95486278
REMARK  11 active torsions:
REMARK  status: ('A' for Active; 'I' for Inactive)
REMARK    1  A    between atoms: C1_1  and  C2_2
REMARK    2  A    between atoms: C5_5  and  C30_41
REMARK    3  A    between atoms: C10_11  and  C22_28
REMARK    4  A    between atoms: C14_16  and  C21_27
REMARK    5  A    between atoms: C15_17  and  O2_26
REMARK    6  A    between atoms: C17_20  and  O1_25
REMARK    7  A    between atoms: C18_22  and  C19_23
REMARK    8  A    between atoms: C18_22  and  C20_24
REMARK    9  A    between atoms: C25_32  and  C28_37
REMARK   10  A    between atoms: C25_32  and  C29_38
REMARK   11  A    between atoms: C26_33  and  O3_36
REMARK                            x       y       z     vdW  Elec       q    Type
REMARK                         _______ _______ _______ _____ _____    ______ ____
ROOT
ATOM      1  C   UNL     1      50.230  17.932  20.891  0.00  0.00    +0.017 C 
ATOM      2  C   UNL     1      50.032  17.959  19.376  0.00  0.00    -0.033 C 
ATOM      3  C   UNL     1      48.972  16.918  18.993  0.00  0.00    +0.000 C 
ATOM      4  C   UNL     1      47.671  17.169  19.755  0.00  0.00    +0.015 C 
ATOM      5  C   UNL     1      47.126  18.570  19.512  0.00  0.00    +0.000 C 
ATOM      6  C   UNL     1      46.640  18.624  18.058  0.00  0.00    +0.019 C 
ATOM      7  C   UNL     1      48.210  19.610  19.620  0.00  0.00    -0.079 C 
ATOM      8  C   UNL     1      48.047  20.747  20.226  0.00  0.00    -0.088 C 
ATOM      9  C   UNL     1      46.759  21.187  20.866  0.00  0.00    +0.069 C 
ATOM     10  C   UNL     1      45.589  20.359  20.324  0.00  0.00    +0.018 C 
ATOM     11  C   UNL     1      44.275  20.755  20.964  0.00  0.00    -0.018 C 
ATOM     12  C   UNL     1      44.343  20.686  22.505  0.00  0.00    +0.024 C 
ATOM     13  C   UNL     1      43.899  22.213  20.658  0.00  0.00    +0.169 C 
ATOM     16  C   UNL     1      43.640  22.379  19.165  0.00  0.00    -0.039 C 
ATOM     17  C   UNL     1      42.362  21.609  18.835  0.00  0.00    +0.172 C 
ATOM     20  C   UNL     1      42.531  20.121  19.155  0.00  0.00    -0.036 C 
ATOM     21  C   UNL     1      41.108  19.511  19.129  0.00  0.00    +0.023 C 
ATOM     22  C   UNL     1      43.308  19.484  18.002  0.00  0.00    +0.033 C 
ATOM     23  C   UNL     1      43.130  19.853  20.513  0.00  0.00    +0.005 C 
ATOM     24  C   UNL     1      43.473  18.392  20.762  0.00  0.00    +0.011 C 
ATOM     25  C   UNL     1      44.788  17.953  20.139  0.00  0.00    +0.006 C 
ATOM     26  C   UNL     1      45.951  18.882  20.446  0.00  0.00    -0.018 C 
ATOM     27  C   UNL     1      46.431  18.579  21.879  0.00  0.00    +0.012 C 
ATOM     28  C   UNL     1      51.344  17.634  18.673  0.00  0.00    -0.011 C 
ATOM     29  C   UNL     1      52.391  18.722  18.845  0.00  0.00    +0.174 C 
ATOM     32  C   UNL     1      51.872  20.114  18.515  0.00  0.00    -0.117 C 
ATOM     36  C   UNL     1      52.914  21.148  18.975  0.00  0.00    +0.021 C 
ATOM     37  C   UNL     1      50.552  20.409  19.224  0.00  0.00    +0.027 C 
ATOM     38  C   UNL     1      49.527  19.328  18.924  0.00  0.00    +0.071 C 
ENDROOT
BRANCH  32  33
ATOM     33  C   UNL     1      51.699  20.254  17.023  0.00  0.00    +0.506 C 
ATOM     34  O   UNL     1      52.105  19.379  16.277  0.00  0.00    -0.684 OA
ATOM     35  O   UNL     1      51.152  21.242  16.562  0.00  0.00    -0.696 OA
ENDBRANCH  32  33
BRANCH  13  14
ATOM     14  O   UNL     1      44.873  23.129  21.126  0.00  0.00    -0.550 OA
ATOM     15  H   UNL     1      45.204  22.932  22.013  0.00  0.00    +0.370 HD
ENDBRANCH  13  14
BRANCH  17  18
ATOM     18  O   UNL     1      41.268  22.137  19.586  0.00  0.00    -0.561 OA
ATOM     19  H   UNL     1      40.448  21.634  19.493  0.00  0.00    +0.372 HD
ENDBRANCH  17  18
BRANCH  29  30
ATOM     30  O   UNL     1      52.938  18.706  20.165  0.00  0.00    -0.563 OA
ATOM     31  H   UNL     1      52.281  18.819  20.865  0.00  0.00    +0.359 HD
ENDBRANCH  29  30
TORSDOF 4
ENDMDL
MODEL 3
REMARK VINA RESULT:      -6.7      5.275      9.101
REMARK  Name = ZINC95486278
REMARK  11 active torsions:
REMARK  status: ('A' for Active; 'I' for Inactive)
REMARK    1  A    between atoms: C1_1  and  C2_2
REMARK    2  A    between atoms: C5_5  and  C30_41
REMARK    3  A    between atoms: C10_11  and  C22_28
REMARK    4  A    between atoms: C14_16  and  C21_27
REMARK    5  A    between atoms: C15_17  and  O2_26
REMARK    6  A    between atoms: C17_20  and  O1_25
REMARK    7  A    between atoms: C18_22  and  C19_23
REMARK    8  A    between atoms: C18_22  and  C20_24
REMARK    9  A    between atoms: C25_32  and  C28_37
REMARK   10  A    between atoms: C25_32  and  C29_38
REMARK   11  A    between atoms: C26_33  and  O3_36
REMARK                            x       y       z     vdW  Elec       q    Type
REMARK                         _______ _______ _______ _____ _____    ______ ____
ROOT
ATOM      1  C   UNL     1      45.229  14.941  19.913  0.00  0.00    +0.017 C 
ATOM      2  C   UNL     1      46.516  15.704  20.222  0.00  0.00    -0.033 C 
ATOM      3  C   UNL     1      47.496  14.763  20.933  0.00  0.00    +0.000 C 
ATOM      4  C   UNL     1      47.749  13.513  20.091  0.00  0.00    +0.015 C 
ATOM      5  C   UNL     1      48.279  13.854  18.705  0.00  0.00    +0.000 C 
ATOM      6  C   UNL     1      49.704  14.392  18.882  0.00  0.00    +0.019 C 
ATOM      7  C   UNL     1      47.494  14.974  18.074  0.00  0.00    -0.079 C 
ATOM      8  C   UNL     1      47.130  14.973  16.828  0.00  0.00    -0.088 C 
ATOM      9  C   UNL     1      47.467  13.882  15.849  0.00  0.00    +0.069 C 
ATOM     10  C   UNL     1      48.639  13.044  16.372  0.00  0.00    +0.018 C 
ATOM     11  C   UNL     1      48.992  11.917  15.425  0.00  0.00    -0.018 C 
ATOM     12  C   UNL     1      47.769  11.030  15.106  0.00  0.00    +0.024 C 
ATOM     13  C   UNL     1      49.462  12.437  14.059  0.00  0.00    +0.169 C 
ATOM     16  C   UNL     1      50.770  13.202  14.216  0.00  0.00    -0.039 C 
ATOM     17  C   UNL     1      51.849  12.189  14.596  0.00  0.00    +0.172 C 
ATOM     20  C   UNL     1      51.502  11.506  15.922  0.00  0.00    -0.036 C 
ATOM     21  C   UNL     1      52.441  10.278  16.032  0.00  0.00    +0.023 C 
ATOM     22  C   UNL     1      51.887  12.461  17.052  0.00  0.00    +0.033 C 
ATOM     23  C   UNL     1      50.078  11.014  16.001  0.00  0.00    +0.005 C 
ATOM     24  C   UNL     1      49.674  10.503  17.376  0.00  0.00    +0.011 C 
ATOM     25  C   UNL     1      49.307  11.604  18.358  0.00  0.00    +0.006 C 
ATOM     26  C   UNL     1      48.319  12.616  17.801  0.00  0.00    -0.018 C 
ATOM     27  C   UNL     1      46.915  11.983  17.855  0.00  0.00    +0.012 C 
ATOM     28  C   UNL     1      46.211  16.897  21.121  0.00  0.00    -0.011 C 
ATOM     29  C   UNL     1      45.401  17.974  20.418  0.00  0.00    +0.174 C 
ATOM     32  C   UNL     1      45.981  18.380  19.070  0.00  0.00    -0.117 C 
ATOM     36  C   UNL     1      44.953  19.261  18.340  0.00  0.00    +0.021 C 
ATOM     37  C   UNL     1      46.286  17.166  18.196  0.00  0.00    +0.027 C 
ATOM     38  C   UNL     1      47.181  16.184  18.932  0.00  0.00    +0.071 C 
ENDROOT
BRANCH  32  33
ATOM     33  C   UNL     1      47.234  19.194  19.279  0.00  0.00    +0.506 C 
ATOM     34  O   UNL     1      47.299  19.988  20.203  0.00  0.00    -0.684 OA
ATOM     35  O   UNL     1      48.182  19.058  18.524  0.00  0.00    -0.696 OA
ENDBRANCH  32  33
BRANCH  13  14
ATOM     14  O   UNL     1      48.472  13.218  13.411  0.00  0.00    -0.550 OA
ATOM     15  H   UNL     1      48.739  13.547  12.542  0.00  0.00    +0.370 HD
ENDBRANCH  13  14
BRANCH  17  18
ATOM     18  O   UNL     1      51.975  11.204  13.570  0.00  0.00    -0.561 OA
ATOM     19  H   UNL     1      51.177  11.085  13.038  0.00  0.00    +0.372 HD
ENDBRANCH  17  18
BRANCH  29  30
ATOM     30  O   UNL     1      44.038  17.572  20.261  0.00  0.00    -0.563 OA
ATOM     31  H   UNL     1      43.417  18.066  20.811  0.00  0.00    +0.359 HD
ENDBRANCH  29  30
TORSDOF 4
ENDMDL
MODEL 4
REMARK VINA RESULT:      -6.4      4.623      8.089
REMARK  Name = ZINC95486278
REMARK  11 active torsions:
REMARK  status: ('A' for Active; 'I' for Inactive)
REMARK    1  A    between atoms: C1_1  and  C2_2
REMARK    2  A    between atoms: C5_5  and  C30_41
REMARK    3  A    between atoms: C10_11  and  C22_28
REMARK    4  A    between atoms: C14_16  and  C21_27
REMARK    5  A    between atoms: C15_17  and  O2_26
REMARK    6  A    between atoms: C17_20  and  O1_25
REMARK    7  A    between atoms: C18_22  and  C19_23
REMARK    8  A    between atoms: C18_22  and  C20_24
REMARK    9  A    between atoms: C25_32  and  C28_37
REMARK   10  A    between atoms: C25_32  and  C29_38
REMARK   11  A    between atoms: C26_33  and  O3_36
REMARK                            x       y       z     vdW  Elec       q    Type
REMARK                         _______ _______ _______ _____ _____    ______ ____
ROOT
ATOM      1  C   UNL     1      44.793  16.727  20.829  0.00  0.00    +0.017 C 
ATOM      2  C   UNL     1      46.219  17.242  21.019  0.00  0.00    -0.033 C 
ATOM      3  C   UNL     1      47.022  16.208  21.818  0.00  0.00    +0.000 C 
ATOM      4  C   UNL     1      46.982  14.845  21.127  0.00  0.00    +0.015 C 
ATOM      5  C   UNL     1      47.508  14.912  19.700  0.00  0.00    +0.000 C 
ATOM      6  C   UNL     1      49.019  15.165  19.783  0.00  0.00    +0.019 C 
ATOM      7  C   UNL     1      46.937  16.089  18.955  0.00  0.00    -0.079 C 
ATOM      8  C   UNL     1      46.525  16.021  17.725  0.00  0.00    -0.088 C 
ATOM      9  C   UNL     1      46.594  14.781  16.878  0.00  0.00    +0.069 C 
ATOM     10  C   UNL     1      47.596  13.787  17.474  0.00  0.00    +0.018 C 
ATOM     11  C   UNL     1      47.675  12.511  16.662  0.00  0.00    -0.018 C 
ATOM     12  C   UNL     1      46.287  11.862  16.476  0.00  0.00    +0.024 C 
ATOM     13  C   UNL     1      48.179  12.766  15.234  0.00  0.00    +0.169 C 
ATOM     16  C   UNL     1      49.620  13.261  15.272  0.00  0.00    -0.039 C 
ATOM     17  C   UNL     1      50.489  12.100  15.750  0.00  0.00    +0.172 C 
ATOM     20  C   UNL     1      50.072  11.656  17.155  0.00  0.00    -0.036 C 
ATOM     21  C   UNL     1      50.750  10.283  17.392  0.00  0.00    +0.023 C 
ATOM     22  C   UNL     1      50.689  12.634  18.154  0.00  0.00    +0.033 C 
ATOM     23  C   UNL     1      48.583  11.477  17.320  0.00  0.00    +0.005 C 
ATOM     24  C   UNL     1      48.145  11.218  18.754  0.00  0.00    +0.011 C 
ATOM     25  C   UNL     1      48.049  12.475  19.604  0.00  0.00    +0.006 C 
ATOM     26  C   UNL     1      47.260  13.597  18.950  0.00  0.00    -0.018 C 
ATOM     27  C   UNL     1      45.761  13.274  19.107  0.00  0.00    +0.012 C 
ATOM     28  C   UNL     1      46.199  18.566  21.774  0.00  0.00    -0.011 C 
ATOM     29  C   UNL     1      45.590  19.698  20.963  0.00  0.00    +0.174 C 
ATOM     32  C   UNL     1      46.180  19.823  19.566  0.00  0.00    -0.117 C 
ATOM     36  C   UNL     1      45.319  20.806  18.755  0.00  0.00    +0.021 C 
ATOM     37  C   UNL     1      46.198  18.481  18.837  0.00  0.00    +0.027 C 
ATOM     38  C   UNL     1      46.909  17.427  19.668  0.00  0.00    +0.071 C 
ENDROOT
BRANCH  32  33
ATOM     33  C   UNL     1      47.578  20.383  19.650  0.00  0.00    +0.506 C 
ATOM     34  O   UNL     1      48.408  20.082  18.808  0.00  0.00    -0.684 OA
ATOM     35  O   UNL     1      47.880  21.137  20.559  0.00  0.00    -0.696 OA
ENDBRANCH  32  33
BRANCH  13  14
ATOM     14  O   UNL     1      47.338  13.654  14.517  0.00  0.00    -0.550 OA
ATOM     15  H   UNL     1      47.657  13.865  13.629  0.00  0.00    +0.370 HD
ENDBRANCH  13  14
BRANCH  17  18
ATOM     18  O   UNL     1      50.371  11.000  14.847  0.00  0.00    -0.561 OA
ATOM     19  H   UNL     1      51.031  11.000  14.139  0.00  0.00    +0.372 HD
ENDBRANCH  17  18
BRANCH  29  30
ATOM     30  O   UNL     1      44.169  19.567  20.883  0.00  0.00    -0.563 OA
ATOM     31  H   UNL     1      43.806  19.755  20.007  0.00  0.00    +0.359 HD
ENDBRANCH  29  30
TORSDOF 4
ENDMDL
MODEL 5
REMARK VINA RESULT:      -6.3      4.680      8.461
REMARK  Name = ZINC95486278
REMARK  11 active torsions:
REMARK  status: ('A' for Active; 'I' for Inactive)
REMARK    1  A    between atoms: C1_1  and  C2_2
REMARK    2  A    between atoms: C5_5  and  C30_41
REMARK    3  A    between atoms: C10_11  and  C22_28
REMARK    4  A    between atoms: C14_16  and  C21_27
REMARK    5  A    between atoms: C15_17  and  O2_26
REMARK    6  A    between atoms: C17_20  and  O1_25
REMARK    7  A    between atoms: C18_22  and  C19_23
REMARK    8  A    between atoms: C18_22  and  C20_24
REMARK    9  A    between atoms: C25_32  and  C28_37
REMARK   10  A    between atoms: C25_32  and  C29_38
REMARK   11  A    between atoms: C26_33  and  O3_36
REMARK                            x       y       z     vdW  Elec       q    Type
REMARK                         _______ _______ _______ _____ _____    ______ ____
ROOT
ATOM      1  C   UNL     1      46.428  16.052  22.003  0.00  0.00    +0.017 C 
ATOM      2  C   UNL     1      47.072  17.120  21.120  0.00  0.00    -0.033 C 
ATOM      3  C   UNL     1      48.593  16.921  21.125  0.00  0.00    +0.000 C 
ATOM      4  C   UNL     1      48.952  15.503  20.681  0.00  0.00    +0.015 C 
ATOM      5  C   UNL     1      48.397  15.177  19.301  0.00  0.00    +0.000 C 
ATOM      6  C   UNL     1      49.179  16.020  18.285  0.00  0.00    +0.019 C 
ATOM      7  C   UNL     1      46.960  15.608  19.168  0.00  0.00    -0.079 C 
ATOM      8  C   UNL     1      46.050  14.881  18.594  0.00  0.00    -0.088 C 
ATOM      9  C   UNL     1      46.311  13.542  17.962  0.00  0.00    +0.069 C 
ATOM     10  C   UNL     1      47.809  13.372  17.682  0.00  0.00    +0.018 C 
ATOM     11  C   UNL     1      48.117  12.023  17.067  0.00  0.00    -0.018 C 
ATOM     12  C   UNL     1      47.573  10.863  17.928  0.00  0.00    +0.024 C 
ATOM     13  C   UNL     1      47.440  11.843  15.701  0.00  0.00    +0.169 C 
ATOM     16  C   UNL     1      48.017  12.837  14.700  0.00  0.00    -0.039 C 
ATOM     17  C   UNL     1      49.465  12.428  14.433  0.00  0.00    +0.172 C 
ATOM     20  C   UNL     1      50.287  12.478  15.724  0.00  0.00    -0.036 C 
ATOM     21  C   UNL     1      51.604  11.721  15.426  0.00  0.00    +0.023 C 
ATOM     22  C   UNL     1      50.662  13.938  15.980  0.00  0.00    +0.033 C 
ATOM     23  C   UNL     1      49.618  11.808  16.899  0.00  0.00    +0.005 C 
ATOM     24  C   UNL     1      50.339  12.014  18.223  0.00  0.00    +0.011 C 
ATOM     25  C   UNL     1      50.053  13.356  18.877  0.00  0.00    +0.006 C 
ATOM     26  C   UNL     1      48.573  13.692  18.963  0.00  0.00    -0.018 C 
ATOM     27  C   UNL     1      47.976  12.896  20.140  0.00  0.00    +0.012 C 
ATOM     28  C   UNL     1      46.738  18.508  21.652  0.00  0.00    -0.011 C 
ATOM     29  C   UNL     1      45.267  18.859  21.500  0.00  0.00    +0.174 C 
ATOM     32  C   UNL     1      44.732  18.619  20.095  0.00  0.00    -0.117 C 
ATOM     36  C   UNL     1      43.200  18.748  20.124  0.00  0.00    +0.021 C 
ATOM     37  C   UNL     1      45.091  17.226  19.584  0.00  0.00    +0.027 C 
ATOM     38  C   UNL     1      46.589  16.988  19.676  0.00  0.00    +0.071 C 
ENDROOT
BRANCH  32  33
ATOM     33  C   UNL     1      45.274  19.669  19.156  0.00  0.00    +0.506 C 
ATOM     34  O   UNL     1      45.500  20.795  19.566  0.00  0.00    -0.684 OA
ATOM     35  O   UNL     1      45.488  19.391  17.989  0.00  0.00    -0.696 OA
ENDBRANCH  32  33
BRANCH  13  14
ATOM     14  O   UNL     1      46.029  11.941  15.782  0.00  0.00    -0.550 OA
ATOM     15  H   UNL     1      45.584  11.093  15.919  0.00  0.00    +0.370 HD
ENDBRANCH  13  14
BRANCH  17  18
ATOM     18  O   UNL     1      49.505  11.107  13.892  0.00  0.00    -0.561 OA
ATOM     19  H   UNL     1      49.251  11.056  12.961  0.00  0.00    +0.372 HD
ENDBRANCH  17  18
BRANCH  29  30
ATOM     30  O   UNL     1      44.468  18.154  22.452  0.00  0.00    -0.563 OA
ATOM     31  H   UNL     1      43.830  17.545  22.057  0.00  0.00    +0.359 HD
ENDBRANCH  29  30
TORSDOF 4
ENDMDL
MODEL 6
REMARK VINA RESULT:      -6.2      3.297      7.962
REMARK  Name = ZINC95486278
REMARK  11 active torsions:
REMARK  status: ('A' for Active; 'I' for Inactive)
REMARK    1  A    between atoms: C1_1  and  C2_2
REMARK    2  A    between atoms: C5_5  and  C30_41
REMARK    3  A    between atoms: C10_11  and  C22_28
REMARK    4  A    between atoms: C14_16  and  C21_27
REMARK    5  A    between atoms: C15_17  and  O2_26
REMARK    6  A    between atoms: C17_20  and  O1_25
REMARK    7  A    between atoms: C18_22  and  C19_23
REMARK    8  A    between atoms: C18_22  and  C20_24
REMARK    9  A    between atoms: C25_32  and  C28_37
REMARK   10  A    between atoms: C25_32  and  C29_38
REMARK   11  A    between atoms: C26_33  and  O3_36
REMARK                            x       y       z     vdW  Elec       q    Type
REMARK                         _______ _______ _______ _____ _____    ______ ____
ROOT
ATOM      1  C   UNL     1      44.076  17.055  21.731  0.00  0.00    +0.017 C 
ATOM      2  C   UNL     1      45.125  18.161  21.618  0.00  0.00    -0.033 C 
ATOM      3  C   UNL     1      46.326  17.802  22.501  0.00  0.00    +0.000 C 
ATOM      4  C   UNL     1      46.883  16.430  22.120  0.00  0.00    +0.015 C 
ATOM      5  C   UNL     1      47.286  16.364  20.653  0.00  0.00    +0.000 C 
ATOM      6  C   UNL     1      48.525  17.252  20.480  0.00  0.00    +0.019 C 
ATOM      7  C   UNL     1      46.228  16.960  19.762  0.00  0.00    -0.079 C 
ATOM      8  C   UNL     1      45.858  16.423  18.640  0.00  0.00    -0.088 C 
ATOM      9  C   UNL     1      46.453  15.165  18.067  0.00  0.00    +0.069 C 
ATOM     10  C   UNL     1      47.810  14.877  18.719  0.00  0.00    +0.018 C 
ATOM     11  C   UNL     1      48.431  13.603  18.187  0.00  0.00    -0.018 C 
ATOM     12  C   UNL     1      47.477  12.398  18.326  0.00  0.00    +0.024 C 
ATOM     13  C   UNL     1      48.729  13.690  16.683  0.00  0.00    +0.169 C 
ATOM     16  C   UNL     1      49.796  14.748  16.425  0.00  0.00    -0.039 C 
ATOM     17  C   UNL     1      51.106  14.228  17.014  0.00  0.00    +0.172 C 
ATOM     20  C   UNL     1      50.969  14.008  18.524  0.00  0.00    -0.036 C 
ATOM     21  C   UNL     1      52.196  13.163  18.949  0.00  0.00    +0.023 C 
ATOM     22  C   UNL     1      51.108  15.369  19.206  0.00  0.00    +0.033 C 
ATOM     23  C   UNL     1      49.723  13.254  18.919  0.00  0.00    +0.005 C 
ATOM     24  C   UNL     1      49.486  13.193  20.421  0.00  0.00    +0.011 C 
ATOM     25  C   UNL     1      48.859  14.454  20.996  0.00  0.00    +0.006 C 
ATOM     26  C   UNL     1      47.634  14.930  20.233  0.00  0.00    -0.018 C 
ATOM     27  C   UNL     1      46.444  14.045  20.652  0.00  0.00    +0.012 C 
ATOM     28  C   UNL     1      44.533  19.489  22.077  0.00  0.00    -0.011 C 
ATOM     29  C   UNL     1      43.460  20.013  21.137  0.00  0.00    +0.174 C 
ATOM     32  C   UNL     1      43.895  20.032  19.678  0.00  0.00    -0.117 C 
ATOM     36  C   UNL     1      42.663  20.318  18.803  0.00  0.00    +0.021 C 
ATOM     37  C   UNL     1      44.492  18.694  19.249  0.00  0.00    +0.027 C 
ATOM     38  C   UNL     1      45.623  18.286  20.179  0.00  0.00    +0.071 C 
ENDROOT
BRANCH  32  33
ATOM     33  C   UNL     1      44.896  21.138  19.458  0.00  0.00    +0.506 C 
ATOM     34  O   UNL     1      44.885  22.123  20.178  0.00  0.00    -0.684 OA
ATOM     35  O   UNL     1      45.716  21.049  18.561  0.00  0.00    -0.696 OA
ENDBRANCH  32  33
BRANCH  13  14
ATOM     14  O   UNL     1      47.562  13.925  15.915  0.00  0.00    -0.550 OA
ATOM     15  H   UNL     1      47.409  13.270  15.221  0.00  0.00    +0.370 HD
ENDBRANCH  13  14
BRANCH  17  18
ATOM     18  O   UNL     1      51.470  13.000  16.384  0.00  0.00    -0.561 OA
ATOM     19  H   UNL     1      50.986  12.230  16.713  0.00  0.00    +0.372 HD
ENDBRANCH  17  18
BRANCH  29  30
ATOM     30  O   UNL     1      42.247  19.270  21.275  0.00  0.00    -0.563 OA
ATOM     31  H   UNL     1      42.146  18.559  20.629  0.00  0.00    +0.359 HD
ENDBRANCH  29  30
TORSDOF 4
ENDMDL
MODEL 7
REMARK VINA RESULT:      -6.1      3.291      5.313
REMARK  Name = ZINC95486278
REMARK  11 active torsions:
REMARK  status: ('A' for Active; 'I' for Inactive)
REMARK    1  A    between atoms: C1_1  and  C2_2
REMARK    2  A    between atoms: C5_5  and  C30_41
REMARK    3  A    between atoms: C10_11  and  C22_28
REMARK    4  A    between atoms: C14_16  and  C21_27
REMARK    5  A    between atoms: C15_17  and  O2_26
REMARK    6  A    between atoms: C17_20  and  O1_25
REMARK    7  A    between atoms: C18_22  and  C19_23
REMARK    8  A    between atoms: C18_22  and  C20_24
REMARK    9  A    between atoms: C25_32  and  C28_37
REMARK   10  A    between atoms: C25_32  and  C29_38
REMARK   11  A    between atoms: C26_33  and  O3_36
REMARK                            x       y       z     vdW  Elec       q    Type
REMARK                         _______ _______ _______ _____ _____    ______ ____
ROOT
ATOM      1  C   UNL     1      48.691  15.223  17.431  0.00  0.00    +0.017 C 
ATOM      2  C   UNL     1      49.623  15.565  18.593  0.00  0.00    -0.033 C 
ATOM      3  C   UNL     1      50.276  16.927  18.325  0.00  0.00    +0.000 C 
ATOM      4  C   UNL     1      49.210  17.999  18.097  0.00  0.00    +0.015 C 
ATOM      5  C   UNL     1      48.252  18.112  19.274  0.00  0.00    +0.000 C 
ATOM      6  C   UNL     1      49.039  18.712  20.446  0.00  0.00    +0.019 C 
ATOM      7  C   UNL     1      47.790  16.758  19.743  0.00  0.00    -0.079 C 
ATOM      8  C   UNL     1      46.560  16.499  20.069  0.00  0.00    -0.088 C 
ATOM      9  C   UNL     1      45.450  17.514  20.055  0.00  0.00    +0.069 C 
ATOM     10  C   UNL     1      46.030  18.933  20.060  0.00  0.00    +0.018 C 
ATOM     11  C   UNL     1      44.942  19.985  20.020  0.00  0.00    -0.018 C 
ATOM     12  C   UNL     1      43.984  19.776  18.828  0.00  0.00    +0.024 C 
ATOM     13  C   UNL     1      44.038  19.928  21.260  0.00  0.00    +0.169 C 
ATOM     16  C   UNL     1      44.841  20.284  22.505  0.00  0.00    -0.039 C 
ATOM     17  C   UNL     1      45.208  21.763  22.405  0.00  0.00    +0.172 C 
ATOM     20  C   UNL     1      46.064  22.024  21.162  0.00  0.00    -0.036 C 
ATOM     21  C   UNL     1      46.076  23.560  20.962  0.00  0.00    +0.023 C 
ATOM     22  C   UNL     1      47.498  21.607  21.490  0.00  0.00    +0.033 C 
ATOM     23  C   UNL     1      45.520  21.392  19.904  0.00  0.00    +0.005 C 
ATOM     24  C   UNL     1      46.456  21.489  18.708  0.00  0.00    +0.011 C 
ATOM     25  C   UNL     1      47.562  20.446  18.707  0.00  0.00    +0.006 C 
ATOM     26  C   UNL     1      47.067  19.028  18.945  0.00  0.00    -0.018 C 
ATOM     27  C   UNL     1      46.463  18.512  17.624  0.00  0.00    +0.012 C 
ATOM     28  C   UNL     1      50.704  14.498  18.726  0.00  0.00    -0.011 C 
ATOM     29  C   UNL     1      50.155  13.157  19.184  0.00  0.00    +0.174 C 
ATOM     32  C   UNL     1      49.268  13.258  20.416  0.00  0.00    -0.117 C 
ATOM     36  C   UNL     1      48.563  11.907  20.626  0.00  0.00    +0.021 C 
ATOM     37  C   UNL     1      48.202  14.340  20.259  0.00  0.00    +0.027 C 
ATOM     38  C   UNL     1      48.837  15.672  19.899  0.00  0.00    +0.071 C 
ENDROOT
BRANCH  32  33
ATOM     33  C   UNL     1      50.114  13.540  21.633  0.00  0.00    +0.506 C 
ATOM     34  O   UNL     1      51.211  13.018  21.747  0.00  0.00    -0.684 OA
ATOM     35  O   UNL     1      49.703  14.290  22.502  0.00  0.00    -0.696 OA
ENDBRANCH  32  33
BRANCH  13  14
ATOM     14  O   UNL     1      43.388  18.676  21.395  0.00  0.00    -0.550 OA
ATOM     15  H   UNL     1      43.063  18.310  20.560  0.00  0.00    +0.370 HD
ENDBRANCH  13  14
BRANCH  17  18
ATOM     18  O   UNL     1      44.022  22.555  22.343  0.00  0.00    -0.561 OA
ATOM     19  H   UNL     1      43.924  23.053  21.519  0.00  0.00    +0.372 HD
ENDBRANCH  17  18
BRANCH  29  30
ATOM     30  O   UNL     1      49.450  12.502  18.127  0.00  0.00    -0.563 OA
ATOM     31  H   UNL     1      49.942  12.451  17.297  0.00  0.00    +0.359 HD
ENDBRANCH  29  30
TORSDOF 4
ENDMDL
MODEL 8
REMARK VINA RESULT:      -6.1      2.122      7.680
REMARK  Name = ZINC95486278
REMARK  11 active torsions:
REMARK  status: ('A' for Active; 'I' for Inactive)
REMARK    1  A    between atoms: C1_1  and  C2_2
REMARK    2  A    between atoms: C5_5  and  C30_41
REMARK    3  A    between atoms: C10_11  and  C22_28
REMARK    4  A    between atoms: C14_16  and  C21_27
REMARK    5  A    between atoms: C15_17  and  O2_26
REMARK    6  A    between atoms: C17_20  and  O1_25
REMARK    7  A    between atoms: C18_22  and  C19_23
REMARK    8  A    between atoms: C18_22  and  C20_24
REMARK    9  A    between atoms: C25_32  and  C28_37
REMARK   10  A    between atoms: C25_32  and  C29_38
REMARK   11  A    between atoms: C26_33  and  O3_36
REMARK                            x       y       z     vdW  Elec       q    Type
REMARK                         _______ _______ _______ _____ _____    ______ ____
ROOT
ATOM      1  C   UNL     1      44.632  19.062  18.414  0.00  0.00    +0.017 C 
ATOM      2  C   UNL     1      44.861  19.226  19.917  0.00  0.00    -0.033 C 
ATOM      3  C   UNL     1      44.959  17.838  20.561  0.00  0.00    +0.000 C 
ATOM      4  C   UNL     1      46.056  17.010  19.892  0.00  0.00    +0.015 C 
ATOM      5  C   UNL     1      47.411  17.701  19.952  0.00  0.00    +0.000 C 
ATOM      6  C   UNL     1      47.868  17.680  21.417  0.00  0.00    +0.019 C 
ATOM      7  C   UNL     1      47.307  19.155  19.577  0.00  0.00    -0.079 C 
ATOM      8  C   UNL     1      48.167  19.755  18.811  0.00  0.00    -0.088 C 
ATOM      9  C   UNL     1      49.387  19.096  18.230  0.00  0.00    +0.069 C 
ATOM     10  C   UNL     1      49.717  17.816  19.006  0.00  0.00    +0.018 C 
ATOM     11  C   UNL     1      50.927  17.107  18.434  0.00  0.00    -0.018 C 
ATOM     12  C   UNL     1      50.765  16.821  16.925  0.00  0.00    +0.024 C 
ATOM     13  C   UNL     1      52.198  17.963  18.532  0.00  0.00    +0.169 C 
ATOM     16  C   UNL     1      52.565  18.183  19.995  0.00  0.00    -0.039 C 
ATOM     17  C   UNL     1      53.004  16.834  20.563  0.00  0.00    +0.172 C 
ATOM     20  C   UNL     1      51.863  15.815  20.476  0.00  0.00    -0.036 C 
ATOM     21  C   UNL     1      52.505  14.429  20.733  0.00  0.00    +0.023 C 
ATOM     22  C   UNL     1      50.910  16.085  21.640  0.00  0.00    +0.033 C 
ATOM     23  C   UNL     1      51.183  15.774  19.130  0.00  0.00    +0.005 C 
ATOM     24  C   UNL     1      49.937  14.903  19.092  0.00  0.00    +0.011 C 
ATOM     25  C   UNL     1      48.696  15.579  19.654  0.00  0.00    +0.006 C 
ATOM     26  C   UNL     1      48.450  16.970  19.093  0.00  0.00    -0.018 C 
ATOM     27  C   UNL     1      47.831  16.810  17.691  0.00  0.00    +0.012 C 
ATOM     28  C   UNL     1      43.703  19.997  20.539  0.00  0.00    -0.011 C 
ATOM     29  C   UNL     1      43.655  21.450  20.096  0.00  0.00    +0.174 C 
ATOM     32  C   UNL     1      44.989  22.168  20.241  0.00  0.00    -0.117 C 
ATOM     36  C   UNL     1      44.896  23.525  19.523  0.00  0.00    +0.021 C 
ATOM     37  C   UNL     1      46.132  21.368  19.618  0.00  0.00    +0.027 C 
ATOM     38  C   UNL     1      46.174  19.959  20.184  0.00  0.00    +0.071 C 
ENDROOT
BRANCH  32  33
ATOM     33  C   UNL     1      45.274  22.425  21.699  0.00  0.00    +0.506 C 
ATOM     34  O   UNL     1      46.420  22.615  22.072  0.00  0.00    -0.684 OA
ATOM     35  O   UNL     1      44.360  22.445  22.505  0.00  0.00    -0.696 OA
ENDBRANCH  32  33
BRANCH  13  14
ATOM     14  O   UNL     1      52.076  19.190  17.833  0.00  0.00    -0.550 OA
ATOM     15  H   UNL     1      52.906  19.510  17.455  0.00  0.00    +0.370 HD
ENDBRANCH  13  14
BRANCH  17  18
ATOM     18  O   UNL     1      54.135  16.347  19.840  0.00  0.00    -0.561 OA
ATOM     19  H   UNL     1      54.223  16.718  18.952  0.00  0.00    +0.372 HD
ENDBRANCH  17  18
BRANCH  29  30
ATOM     30  O   UNL     1      43.184  21.562  18.751  0.00  0.00    -0.563 OA
ATOM     31  H   UNL     1      43.127  22.472  18.429  0.00  0.00    +0.359 HD
ENDBRANCH  29  30
TORSDOF 4
ENDMDL
MODEL 9
REMARK VINA RESULT:      -6.0      4.424      7.800
REMARK  Name = ZINC95486278
REMARK  11 active torsions:
REMARK  status: ('A' for Active; 'I' for Inactive)
REMARK    1  A    between atoms: C1_1  and  C2_2
REMARK    2  A    between atoms: C5_5  and  C30_41
REMARK    3  A    between atoms: C10_11  and  C22_28
REMARK    4  A    between atoms: C14_16  and  C21_27
REMARK    5  A    between atoms: C15_17  and  O2_26
REMARK    6  A    between atoms: C17_20  and  O1_25
REMARK    7  A    between atoms: C18_22  and  C19_23
REMARK    8  A    between atoms: C18_22  and  C20_24
REMARK    9  A    between atoms: C25_32  and  C28_37
REMARK   10  A    between atoms: C25_32  and  C29_38
REMARK   11  A    between atoms: C26_33  and  O3_36
REMARK                            x       y       z     vdW  Elec       q    Type
REMARK                         _______ _______ _______ _____ _____    ______ ____
ROOT
ATOM      1  C   UNL     1      47.933  12.351  18.134  0.00  0.00    +0.017 C 
ATOM      2  C   UNL     1      47.528  13.220  16.944  0.00  0.00    -0.033 C 
ATOM      3  C   UNL     1      46.596  14.335  17.434  0.00  0.00    +0.000 C 
ATOM      4  C   UNL     1      47.263  15.144  18.546  0.00  0.00    +0.015 C 
ATOM      5  C   UNL     1      48.590  15.744  18.101  0.00  0.00    +0.000 C 
ATOM      6  C   UNL     1      48.273  16.841  17.076  0.00  0.00    +0.019 C 
ATOM      7  C   UNL     1      49.434  14.734  17.369  0.00  0.00    -0.079 C 
ATOM      8  C   UNL     1      50.712  14.605  17.559  0.00  0.00    -0.088 C 
ATOM      9  C   UNL     1      51.518  15.459  18.499  0.00  0.00    +0.069 C 
ATOM     10  C   UNL     1      50.755  16.745  18.831  0.00  0.00    +0.018 C 
ATOM     11  C   UNL     1      51.524  17.622  19.797  0.00  0.00    -0.018 C 
ATOM     12  C   UNL     1      51.917  16.857  21.079  0.00  0.00    +0.024 C 
ATOM     13  C   UNL     1      52.858  18.100  19.206  0.00  0.00    +0.169 C 
ATOM     16  C   UNL     1      52.601  19.014  18.014  0.00  0.00    -0.039 C 
ATOM     17  C   UNL     1      51.973  20.299  18.551  0.00  0.00    +0.172 C 
ATOM     20  C   UNL     1      50.645  19.998  19.252  0.00  0.00    -0.036 C 
ATOM     21  C   UNL     1      50.281  21.275  20.051  0.00  0.00    +0.023 C 
ATOM     22  C   UNL     1      49.576  19.832  18.171  0.00  0.00    +0.033 C 
ATOM     23  C   UNL     1      50.714  18.844  20.220  0.00  0.00    +0.005 C 
ATOM     24  C   UNL     1      49.363  18.421  20.779  0.00  0.00    +0.011 C 
ATOM     25  C   UNL     1      48.559  17.536  19.841  0.00  0.00    +0.006 C 
ATOM     26  C   UNL     1      49.348  16.363  19.281  0.00  0.00    -0.018 C 
ATOM     27  C   UNL     1      49.425  15.280  20.375  0.00  0.00    +0.012 C 
ATOM     28  C   UNL     1      46.807  12.373  15.901  0.00  0.00    -0.011 C 
ATOM     29  C   UNL     1      47.722  11.367  15.224  0.00  0.00    +0.174 C 
ATOM     32  C   UNL     1      49.011  11.983  14.697  0.00  0.00    -0.117 C 
ATOM     36  C   UNL     1      49.962  10.849  14.281  0.00  0.00    +0.021 C 
ATOM     37  C   UNL     1      49.705  12.833  15.758  0.00  0.00    +0.027 C 
ATOM     38  C   UNL     1      48.756  13.880  16.317  0.00  0.00    +0.071 C 
ENDROOT
BRANCH  32  33
ATOM     33  C   UNL     1      48.715  12.819  13.477  0.00  0.00    +0.506 C 
ATOM     34  O   UNL     1      47.560  13.026  13.145  0.00  0.00    -0.684 OA
ATOM     35  O   UNL     1      49.630  13.291  12.824  0.00  0.00    -0.696 OA
ENDBRANCH  32  33
BRANCH  13  14
ATOM     14  O   UNL     1      53.713  17.023  18.866  0.00  0.00    -0.550 OA
ATOM     15  H   UNL     1      54.608  17.294  18.619  0.00  0.00    +0.370 HD
ENDBRANCH  13  14
BRANCH  17  18
ATOM     18  O   UNL     1      52.865  20.930  19.469  0.00  0.00    -0.561 OA
ATOM     19  H   UNL     1      52.688  20.721  20.397  0.00  0.00    +0.372 HD
ENDBRANCH  17  18
BRANCH  29  30
ATOM     30  O   UNL     1      48.024  10.277  16.097  0.00  0.00    -0.563 OA
ATOM     31  H   UNL     1      48.389  10.546  16.951  0.00  0.00    +0.359 HD
ENDBRANCH  29  30
TORSDOF 4
ENDMDL
