MODEL 1
REMARK VINA RESULT:      -6.6      0.000      0.000
REMARK  Name = ZINC95486191
REMARK  18 active torsions:
REMARK  status: ('A' for Active; 'I' for Inactive)
REMARK    1  A    between atoms: C1_1  and  C2_2
REMARK    2  A    between atoms: C2_2  and  C28_35
REMARK    3  A    between atoms: C3_3  and  C4_4
REMARK    4  A    between atoms: C4_4  and  C5_5
REMARK    5  A    between atoms: C11_12  and  O4_22
REMARK    6  A    between atoms: C12_13  and  C14_16
REMARK    7  A    between atoms: C13_14  and  O2_15
REMARK    8  A    between atoms: C14_16  and  C15_17
REMARK    9  A    between atoms: C15_17  and  C16_18
REMARK   10  A    between atoms: C16_18  and  C17_19
REMARK   11  A    between atoms: C16_18  and  C18_20
REMARK   12  A    between atoms: C16_18  and  O3_21
REMARK   13  A    between atoms: C20_25  and  C23_30
REMARK   14  A    between atoms: C21_26  and  O7_29
REMARK   15  A    between atoms: C22_27  and  O6_28
REMARK   16  A    between atoms: C23_30  and  C24_31
REMARK   17  A    between atoms: C25_32  and  C26_33
REMARK   18  A    between atoms: C25_32  and  C27_34
REMARK                            x       y       z     vdW  Elec       q    Type
REMARK                         _______ _______ _______ _____ _____    ______ ____
ROOT
ATOM      6  C   UNL     1      48.762  15.265  18.621  0.00  0.00    +0.001 A 
ATOM      7  C   UNL     1      48.313  16.579  18.768  0.00  0.00    -0.215 A 
ATOM      8  C   UNL     1      47.045  16.875  19.465  0.00  0.00    +0.441 A 
ATOM      9  C   UNL     1      46.526  18.244  19.304  0.00  0.00    -0.263 A 
ATOM     10  C   UNL     1      47.372  19.222  18.752  0.00  0.00    +0.186 A 
ATOM     11  O   UNL     1      48.639  18.925  18.400  0.00  0.00    -0.217 OA
ATOM     12  C   UNL     1      46.888  20.510  18.578  0.00  0.00    -0.029 A 
ATOM     13  C   UNL     1      45.590  20.826  18.951  0.00  0.00    +0.193 A 
ATOM     16  C   UNL     1      44.757  19.861  19.506  0.00  0.00    -0.169 A 
ATOM     24  C   UNL     1      45.218  18.570  19.686  0.00  0.00    +0.220 A 
ATOM     27  O   UNL     1      46.465  16.038  20.134  0.00  0.00    -0.421 OA
ATOM     28  C   UNL     1      49.056  17.652  18.248  0.00  0.00    +0.168 A 
ATOM     29  C   UNL     1      50.241  17.386  17.572  0.00  0.00    -0.119 A 
ATOM     35  C   UNL     1      50.680  16.083  17.424  0.00  0.00    +0.155 A 
ATOM     38  C   UNL     1      49.946  15.021  17.954  0.00  0.00    +0.060 A 
ENDROOT
BRANCH  13  14
ATOM     14  O   UNL     1      45.129  22.090  18.773  0.00  0.00    -0.483 OA
ATOM     15  H   UNL     1      45.648  22.613  18.146  0.00  0.00    +0.401 HD
ENDBRANCH  13  14
BRANCH  24  25
ATOM     25  O   UNL     1      44.409  17.625  20.229  0.00  0.00    -0.472 OA
ATOM     26  H   UNL     1      44.356  16.809  19.712  0.00  0.00    +0.403 HD
ENDBRANCH  24  25
BRANCH  35  36
ATOM     36  O   UNL     1      51.839  15.835  16.761  0.00  0.00    -0.479 OA
ATOM     37  H   UNL     1      52.537  15.461  17.316  0.00  0.00    +0.400 HD
ENDBRANCH  35  36
BRANCH  38  39
ATOM     39  O   UNL     1      50.393  13.744  17.811  0.00  0.00    -0.476 OA
ATOM     40  H   UNL     1      50.932  13.430  18.551  0.00  0.00    +0.390 HD
ENDBRANCH  38  39
BRANCH   6   5
ATOM      5  C   UNL     1      47.961  14.123  19.190  0.00  0.00    +0.129 C 
BRANCH   5   4
ATOM      1  C   UNL     1      45.282  13.247  19.287  0.00  0.00    +0.074 C 
ATOM      2  C   UNL     1      46.133  12.943  18.081  0.00  0.00    -0.131 C 
ATOM      3  C   UNL     1      45.534  12.230  16.896  0.00  0.00    +0.072 C 
ATOM      4  C   UNL     1      47.394  13.298  18.063  0.00  0.00    -0.033 C 
ENDBRANCH   5   4
ENDBRANCH   6   5
BRANCH  16  17
ATOM     17  C   UNL     1      43.352  20.223  19.911  0.00  0.00    +0.102 C 
BRANCH  17  18
ATOM     18  C   UNL     1      42.390  19.901  18.765  0.00  0.00    +0.000 C 
BRANCH  18  19
ATOM     19  C   UNL     1      41.089  20.681  18.956  0.00  0.00    +0.127 C 
ATOM     22  C   UNL     1      40.046  20.187  17.950  0.00  0.00    +0.008 C 
ATOM     23  C   UNL     1      41.350  22.172  18.729  0.00  0.00    +0.055 C 
BRANCH  19  20
ATOM     20  O   UNL     1      40.602  20.479  20.285  0.00  0.00    -0.559 OA
ATOM     21  H   UNL     1      40.156  21.249  20.661  0.00  0.00    +0.377 HD
ENDBRANCH  19  20
ENDBRANCH  18  19
ENDBRANCH  17  18
ENDBRANCH  16  17
BRANCH  29  30
ATOM     30  C   UNL     1      51.050  18.521  16.998  0.00  0.00    +0.136 C 
BRANCH  30  31
ATOM     31  C   UNL     1      51.915  19.119  18.079  0.00  0.00    -0.055 C 
ATOM     32  C   UNL     1      51.882  20.409  18.304  0.00  0.00    -0.125 C 
ATOM     33  C   UNL     1      52.713  20.999  19.413  0.00  0.00    +0.074 C 
ATOM     34  C   UNL     1      51.015  21.301  17.454  0.00  0.00    +0.077 C 
ENDBRANCH  30  31
ENDBRANCH  29  30
TORSDOF 12
ENDMDL
MODEL 2
REMARK VINA RESULT:      -6.3      2.055      7.001
REMARK  Name = ZINC95486191
REMARK  18 active torsions:
REMARK  status: ('A' for Active; 'I' for Inactive)
REMARK    1  A    between atoms: C1_1  and  C2_2
REMARK    2  A    between atoms: C2_2  and  C28_35
REMARK    3  A    between atoms: C3_3  and  C4_4
REMARK    4  A    between atoms: C4_4  and  C5_5
REMARK    5  A    between atoms: C11_12  and  O4_22
REMARK    6  A    between atoms: C12_13  and  C14_16
REMARK    7  A    between atoms: C13_14  and  O2_15
REMARK    8  A    between atoms: C14_16  and  C15_17
REMARK    9  A    between atoms: C15_17  and  C16_18
REMARK   10  A    between atoms: C16_18  and  C17_19
REMARK   11  A    between atoms: C16_18  and  C18_20
REMARK   12  A    between atoms: C16_18  and  O3_21
REMARK   13  A    between atoms: C20_25  and  C23_30
REMARK   14  A    between atoms: C21_26  and  O7_29
REMARK   15  A    between atoms: C22_27  and  O6_28
REMARK   16  A    between atoms: C23_30  and  C24_31
REMARK   17  A    between atoms: C25_32  and  C26_33
REMARK   18  A    between atoms: C25_32  and  C27_34
REMARK                            x       y       z     vdW  Elec       q    Type
REMARK                         _______ _______ _______ _____ _____    ______ ____
ROOT
ATOM      6  C   UNL     1      46.012  19.082  20.230  0.00  0.00    +0.001 A 
ATOM      7  C   UNL     1      46.956  18.416  19.446  0.00  0.00    -0.215 A 
ATOM      8  C   UNL     1      46.624  17.142  18.775  0.00  0.00    +0.441 A 
ATOM      9  C   UNL     1      47.764  16.385  18.230  0.00  0.00    -0.263 A 
ATOM     10  C   UNL     1      49.012  17.026  18.138  0.00  0.00    +0.186 A 
ATOM     11  O   UNL     1      49.162  18.311  18.516  0.00  0.00    -0.217 OA
ATOM     12  C   UNL     1      50.098  16.318  17.643  0.00  0.00    -0.029 A 
ATOM     13  C   UNL     1      49.947  15.000  17.240  0.00  0.00    +0.193 A 
ATOM     16  C   UNL     1      48.710  14.370  17.320  0.00  0.00    -0.169 A 
ATOM     24  C   UNL     1      47.615  15.056  17.813  0.00  0.00    +0.220 A 
ATOM     27  O   UNL     1      45.477  16.743  18.678  0.00  0.00    -0.421 OA
ATOM     28  C   UNL     1      48.249  18.939  19.285  0.00  0.00    +0.168 A 
ATOM     29  C   UNL     1      48.581  20.126  19.927  0.00  0.00    -0.119 A 
ATOM     35  C   UNL     1      47.645  20.781  20.706  0.00  0.00    +0.155 A 
ATOM     38  C   UNL     1      46.356  20.264  20.853  0.00  0.00    +0.060 A 
ENDROOT
BRANCH  13  14
ATOM     14  O   UNL     1      51.017  14.318  16.759  0.00  0.00    -0.483 OA
ATOM     15  H   UNL     1      50.871  13.917  15.891  0.00  0.00    +0.401 HD
ENDBRANCH  13  14
BRANCH  24  25
ATOM     25  O   UNL     1      46.406  14.446  17.893  0.00  0.00    -0.472 OA
ATOM     26  H   UNL     1      46.336  13.640  17.362  0.00  0.00    +0.403 HD
ENDBRANCH  24  25
BRANCH  35  36
ATOM     36  O   UNL     1      47.980  21.939  21.329  0.00  0.00    -0.479 OA
ATOM     37  H   UNL     1      48.683  21.844  21.987  0.00  0.00    +0.400 HD
ENDBRANCH  35  36
BRANCH  38  39
ATOM     39  O   UNL     1      45.441  20.922  21.614  0.00  0.00    -0.476 OA
ATOM     40  H   UNL     1      44.630  21.157  21.141  0.00  0.00    +0.390 HD
ENDBRANCH  38  39
BRANCH   6   5
ATOM      5  C   UNL     1      44.625  18.515  20.390  0.00  0.00    +0.129 C 
BRANCH   5   4
ATOM      1  C   UNL     1      41.949  18.838  21.223  0.00  0.00    +0.074 C 
ATOM      2  C   UNL     1      42.434  19.506  19.962  0.00  0.00    -0.131 C 
ATOM      3  C   UNL     1      41.508  20.402  19.181  0.00  0.00    +0.072 C 
ATOM      4  C   UNL     1      43.660  19.306  19.545  0.00  0.00    -0.033 C 
ENDBRANCH   5   4
ENDBRANCH   6   5
BRANCH  16  17
ATOM     17  C   UNL     1      48.563  12.939  16.872  0.00  0.00    +0.102 C 
BRANCH  17  18
ATOM     18  C   UNL     1      48.134  12.905  15.403  0.00  0.00    +0.000 C 
BRANCH  18  19
ATOM     19  C   UNL     1      47.425  11.582  15.109  0.00  0.00    +0.127 C 
ATOM     22  C   UNL     1      46.385  11.308  16.198  0.00  0.00    +0.008 C 
ATOM     23  C   UNL     1      48.452  10.448  15.087  0.00  0.00    +0.055 C 
BRANCH  19  20
ATOM     20  O   UNL     1      46.775  11.661  13.838  0.00  0.00    -0.559 OA
ATOM     21  H   UNL     1      45.940  11.178  13.794  0.00  0.00    +0.377 HD
ENDBRANCH  19  20
ENDBRANCH  18  19
ENDBRANCH  17  18
ENDBRANCH  16  17
BRANCH  29  30
ATOM     30  C   UNL     1      49.966  20.701  19.774  0.00  0.00    +0.136 C 
BRANCH  30  31
ATOM     31  C   UNL     1      50.169  21.150  18.349  0.00  0.00    -0.055 C 
ATOM     32  C   UNL     1      51.287  20.869  17.727  0.00  0.00    -0.125 C 
ATOM     33  C   UNL     1      51.472  21.279  16.289  0.00  0.00    +0.074 C 
ATOM     34  C   UNL     1      52.387  20.135  18.450  0.00  0.00    +0.077 C 
ENDBRANCH  30  31
ENDBRANCH  29  30
TORSDOF 12
ENDMDL
MODEL 3
REMARK VINA RESULT:      -6.3      2.091      8.148
REMARK  Name = ZINC95486191
REMARK  18 active torsions:
REMARK  status: ('A' for Active; 'I' for Inactive)
REMARK    1  A    between atoms: C1_1  and  C2_2
REMARK    2  A    between atoms: C2_2  and  C28_35
REMARK    3  A    between atoms: C3_3  and  C4_4
REMARK    4  A    between atoms: C4_4  and  C5_5
REMARK    5  A    between atoms: C11_12  and  O4_22
REMARK    6  A    between atoms: C12_13  and  C14_16
REMARK    7  A    between atoms: C13_14  and  O2_15
REMARK    8  A    between atoms: C14_16  and  C15_17
REMARK    9  A    between atoms: C15_17  and  C16_18
REMARK   10  A    between atoms: C16_18  and  C17_19
REMARK   11  A    between atoms: C16_18  and  C18_20
REMARK   12  A    between atoms: C16_18  and  O3_21
REMARK   13  A    between atoms: C20_25  and  C23_30
REMARK   14  A    between atoms: C21_26  and  O7_29
REMARK   15  A    between atoms: C22_27  and  O6_28
REMARK   16  A    between atoms: C23_30  and  C24_31
REMARK   17  A    between atoms: C25_32  and  C26_33
REMARK   18  A    between atoms: C25_32  and  C27_34
REMARK                            x       y       z     vdW  Elec       q    Type
REMARK                         _______ _______ _______ _____ _____    ______ ____
ROOT
ATOM      6  C   UNL     1      47.871  20.021  20.678  0.00  0.00    +0.001 A 
ATOM      7  C   UNL     1      47.248  18.774  20.593  0.00  0.00    -0.215 A 
ATOM      8  C   UNL     1      48.022  17.558  20.267  0.00  0.00    +0.441 A 
ATOM      9  C   UNL     1      47.230  16.367  19.914  0.00  0.00    -0.263 A 
ATOM     10  C   UNL     1      45.847  16.381  20.167  0.00  0.00    +0.186 A 
ATOM     11  O   UNL     1      45.258  17.447  20.743  0.00  0.00    -0.217 OA
ATOM     12  C   UNL     1      45.088  15.272  19.821  0.00  0.00    -0.029 A 
ATOM     13  C   UNL     1      45.692  14.166  19.241  0.00  0.00    +0.193 A 
ATOM     16  C   UNL     1      47.061  14.149  19.000  0.00  0.00    -0.169 A 
ATOM     24  C   UNL     1      47.836  15.244  19.335  0.00  0.00    +0.220 A 
ATOM     27  O   UNL     1      49.240  17.542  20.292  0.00  0.00    -0.421 OA
ATOM     28  C   UNL     1      45.866  18.649  20.807  0.00  0.00    +0.168 A 
ATOM     29  C   UNL     1      45.122  19.788  21.094  0.00  0.00    -0.119 A 
ATOM     35  C   UNL     1      45.742  21.022  21.173  0.00  0.00    +0.155 A 
ATOM     38  C   UNL     1      47.119  21.139  20.973  0.00  0.00    +0.060 A 
ENDROOT
BRANCH  13  14
ATOM     14  O   UNL     1      44.937  13.089  18.906  0.00  0.00    -0.483 OA
ATOM     15  H   UNL     1      44.861  12.944  17.953  0.00  0.00    +0.401 HD
ENDBRANCH  13  14
BRANCH  24  25
ATOM     25  O   UNL     1      49.173  15.232  19.103  0.00  0.00    -0.472 OA
ATOM     26  H   UNL     1      49.657  14.578  19.628  0.00  0.00    +0.403 HD
ENDBRANCH  24  25
BRANCH  35  36
ATOM     36  O   UNL     1      45.006  22.128  21.453  0.00  0.00    -0.479 OA
ATOM     37  H   UNL     1      45.182  22.507  22.325  0.00  0.00    +0.400 HD
ENDBRANCH  35  36
BRANCH  38  39
ATOM     39  O   UNL     1      47.719  22.357  21.063  0.00  0.00    -0.476 OA
ATOM     40  H   UNL     1      47.316  23.037  20.505  0.00  0.00    +0.390 HD
ENDBRANCH  38  39
BRANCH   6   5
ATOM      5  C   UNL     1      49.356  20.141  20.454  0.00  0.00    +0.129 C 
BRANCH   5   4
ATOM      1  C   UNL     1      51.897  21.093  19.681  0.00  0.00    +0.074 C 
ATOM      2  C   UNL     1      50.815  20.901  18.649  0.00  0.00    -0.131 C 
ATOM      3  C   UNL     1      51.111  21.151  17.193  0.00  0.00    +0.072 C 
ATOM      4  C   UNL     1      49.618  20.517  19.018  0.00  0.00    -0.033 C 
ENDBRANCH   5   4
ENDBRANCH   6   5
BRANCH  16  17
ATOM     17  C   UNL     1      47.700  12.936  18.374  0.00  0.00    +0.102 C 
BRANCH  17  18
ATOM     18  C   UNL     1      47.609  13.041  16.850  0.00  0.00    +0.000 C 
BRANCH  18  19
ATOM     19  C   UNL     1      46.852  11.831  16.300  0.00  0.00    +0.127 C 
ATOM     22  C   UNL     1      47.020  10.647  17.255  0.00  0.00    +0.008 C 
ATOM     23  C   UNL     1      47.410  11.461  14.925  0.00  0.00    +0.055 C 
BRANCH  19  20
ATOM     20  O   UNL     1      45.463  12.152  16.181  0.00  0.00    -0.559 OA
ATOM     21  H   UNL     1      45.229  13.020  16.533  0.00  0.00    +0.377 HD
ENDBRANCH  19  20
ENDBRANCH  18  19
ENDBRANCH  17  18
ENDBRANCH  16  17
BRANCH  29  30
ATOM     30  C   UNL     1      43.636  19.678  21.319  0.00  0.00    +0.136 C 
BRANCH  30  31
ATOM     31  C   UNL     1      42.910  19.978  20.032  0.00  0.00    -0.055 C 
ATOM     32  C   UNL     1      41.653  19.635  19.895  0.00  0.00    -0.125 C 
ATOM     33  C   UNL     1      40.915  19.975  18.626  0.00  0.00    +0.074 C 
ATOM     34  C   UNL     1      40.947  18.902  21.005  0.00  0.00    +0.077 C 
ENDBRANCH  30  31
ENDBRANCH  29  30
TORSDOF 12
ENDMDL
MODEL 4
REMARK VINA RESULT:      -6.0      1.932      2.452
REMARK  Name = ZINC95486191
REMARK  18 active torsions:
REMARK  status: ('A' for Active; 'I' for Inactive)
REMARK    1  A    between atoms: C1_1  and  C2_2
REMARK    2  A    between atoms: C2_2  and  C28_35
REMARK    3  A    between atoms: C3_3  and  C4_4
REMARK    4  A    between atoms: C4_4  and  C5_5
REMARK    5  A    between atoms: C11_12  and  O4_22
REMARK    6  A    between atoms: C12_13  and  C14_16
REMARK    7  A    between atoms: C13_14  and  O2_15
REMARK    8  A    between atoms: C14_16  and  C15_17
REMARK    9  A    between atoms: C15_17  and  C16_18
REMARK   10  A    between atoms: C16_18  and  C17_19
REMARK   11  A    between atoms: C16_18  and  C18_20
REMARK   12  A    between atoms: C16_18  and  O3_21
REMARK   13  A    between atoms: C20_25  and  C23_30
REMARK   14  A    between atoms: C21_26  and  O7_29
REMARK   15  A    between atoms: C22_27  and  O6_28
REMARK   16  A    between atoms: C23_30  and  C24_31
REMARK   17  A    between atoms: C25_32  and  C26_33
REMARK   18  A    between atoms: C25_32  and  C27_34
REMARK                            x       y       z     vdW  Elec       q    Type
REMARK                         _______ _______ _______ _____ _____    ______ ____
ROOT
ATOM      6  C   UNL     1      48.061  17.198  20.536  0.00  0.00    +0.001 A 
ATOM      7  C   UNL     1      47.543  18.495  20.529  0.00  0.00    -0.215 A 
ATOM      8  C   UNL     1      46.096  18.736  20.710  0.00  0.00    +0.441 A 
ATOM      9  C   UNL     1      45.626  20.095  20.392  0.00  0.00    -0.263 A 
ATOM     10  C   UNL     1      46.581  21.111  20.213  0.00  0.00    +0.186 A 
ATOM     11  O   UNL     1      47.898  20.858  20.352  0.00  0.00    -0.217 OA
ATOM     12  C   UNL     1      46.151  22.391  19.895  0.00  0.00    -0.029 A 
ATOM     13  C   UNL     1      44.797  22.661  19.764  0.00  0.00    +0.193 A 
ATOM     16  C   UNL     1      43.852  21.659  19.952  0.00  0.00    -0.169 A 
ATOM     24  C   UNL     1      44.259  20.375  20.267  0.00  0.00    +0.220 A 
ATOM     27  O   UNL     1      45.340  17.864  21.100  0.00  0.00    -0.421 OA
ATOM     28  C   UNL     1      48.386  19.602  20.342  0.00  0.00    +0.168 A 
ATOM     29  C   UNL     1      49.747  19.387  20.152  0.00  0.00    -0.119 A 
ATOM     35  C   UNL     1      50.255  18.102  20.153  0.00  0.00    +0.155 A 
ATOM     38  C   UNL     1      49.415  17.005  20.353  0.00  0.00    +0.060 A 
ENDROOT
BRANCH  13  14
ATOM     14  O   UNL     1      44.390  23.917  19.451  0.00  0.00    -0.483 OA
ATOM     15  H   UNL     1      44.881  24.319  18.720  0.00  0.00    +0.401 HD
ENDBRANCH  13  14
BRANCH  24  25
ATOM     25  O   UNL     1      43.341  19.394  20.453  0.00  0.00    -0.472 OA
ATOM     26  H   UNL     1      43.711  18.569  20.800  0.00  0.00    +0.403 HD
ENDBRANCH  24  25
BRANCH  35  36
ATOM     36  O   UNL     1      51.585  17.904  19.965  0.00  0.00    -0.479 OA
ATOM     37  H   UNL     1      52.080  18.712  19.770  0.00  0.00    +0.400 HD
ENDBRANCH  35  36
BRANCH  38  39
ATOM     39  O   UNL     1      49.928  15.745  20.363  0.00  0.00    -0.476 OA
ATOM     40  H   UNL     1      50.307  15.481  21.213  0.00  0.00    +0.390 HD
ENDBRANCH  38  39
BRANCH   6   5
ATOM      5  C   UNL     1      47.147  16.019  20.745  0.00  0.00    +0.129 C 
BRANCH   5   4
ATOM      1  C   UNL     1      45.234  13.958  20.516  0.00  0.00    +0.074 C 
ATOM      2  C   UNL     1      46.077  14.342  19.328  0.00  0.00    -0.131 C 
ATOM      3  C   UNL     1      45.852  13.672  17.997  0.00  0.00    +0.072 C 
ATOM      4  C   UNL     1      47.007  15.257  19.452  0.00  0.00    -0.033 C 
ENDBRANCH   5   4
ENDBRANCH   6   5
BRANCH  16  17
ATOM     17  C   UNL     1      42.385  21.971  19.812  0.00  0.00    +0.102 C 
BRANCH  17  18
ATOM     18  C   UNL     1      41.858  21.373  18.505  0.00  0.00    +0.000 C 
BRANCH  18  19
ATOM     19  C   UNL     1      40.550  20.627  18.777  0.00  0.00    +0.127 C 
ATOM     22  C   UNL     1      40.435  19.436  17.822  0.00  0.00    +0.008 C 
ATOM     23  C   UNL     1      39.368  21.574  18.557  0.00  0.00    +0.055 C 
BRANCH  19  20
ATOM     20  O   UNL     1      40.540  20.158  20.127  0.00  0.00    -0.559 OA
ATOM     21  H   UNL     1      40.926  19.279  20.240  0.00  0.00    +0.377 HD
ENDBRANCH  19  20
ENDBRANCH  18  19
ENDBRANCH  17  18
ENDBRANCH  16  17
BRANCH  29  30
ATOM     30  C   UNL     1      50.669  20.561  19.940  0.00  0.00    +0.136 C 
BRANCH  30  31
ATOM     31  C   UNL     1      50.568  21.028  18.511  0.00  0.00    -0.055 C 
ATOM     32  C   UNL     1      51.585  20.875  17.699  0.00  0.00    -0.125 C 
ATOM     33  C   UNL     1      51.468  21.302  16.259  0.00  0.00    +0.074 C 
ATOM     34  C   UNL     1      52.870  20.273  18.206  0.00  0.00    +0.077 C 
ENDBRANCH  30  31
ENDBRANCH  29  30
TORSDOF 12
ENDMDL
MODEL 5
REMARK VINA RESULT:      -6.0      1.316      5.239
REMARK  Name = ZINC95486191
REMARK  18 active torsions:
REMARK  status: ('A' for Active; 'I' for Inactive)
REMARK    1  A    between atoms: C1_1  and  C2_2
REMARK    2  A    between atoms: C2_2  and  C28_35
REMARK    3  A    between atoms: C3_3  and  C4_4
REMARK    4  A    between atoms: C4_4  and  C5_5
REMARK    5  A    between atoms: C11_12  and  O4_22
REMARK    6  A    between atoms: C12_13  and  C14_16
REMARK    7  A    between atoms: C13_14  and  O2_15
REMARK    8  A    between atoms: C14_16  and  C15_17
REMARK    9  A    between atoms: C15_17  and  C16_18
REMARK   10  A    between atoms: C16_18  and  C17_19
REMARK   11  A    between atoms: C16_18  and  C18_20
REMARK   12  A    between atoms: C16_18  and  O3_21
REMARK   13  A    between atoms: C20_25  and  C23_30
REMARK   14  A    between atoms: C21_26  and  O7_29
REMARK   15  A    between atoms: C22_27  and  O6_28
REMARK   16  A    between atoms: C23_30  and  C24_31
REMARK   17  A    between atoms: C25_32  and  C26_33
REMARK   18  A    between atoms: C25_32  and  C27_34
REMARK                            x       y       z     vdW  Elec       q    Type
REMARK                         _______ _______ _______ _____ _____    ______ ____
ROOT
ATOM      6  C   UNL     1      49.808  17.453  19.268  0.00  0.00    +0.001 A 
ATOM      7  C   UNL     1      48.419  17.423  19.400  0.00  0.00    -0.215 A 
ATOM      8  C   UNL     1      47.615  18.655  19.263  0.00  0.00    +0.441 A 
ATOM      9  C   UNL     1      46.214  18.563  19.710  0.00  0.00    -0.263 A 
ATOM     10  C   UNL     1      45.674  17.290  19.967  0.00  0.00    +0.186 A 
ATOM     11  O   UNL     1      46.409  16.175  19.787  0.00  0.00    -0.217 OA
ATOM     12  C   UNL     1      44.362  17.192  20.407  0.00  0.00    -0.029 A 
ATOM     13  C   UNL     1      43.596  18.335  20.581  0.00  0.00    +0.193 A 
ATOM     16  C   UNL     1      44.127  19.593  20.316  0.00  0.00    -0.169 A 
ATOM     24  C   UNL     1      45.433  19.714  19.879  0.00  0.00    +0.220 A 
ATOM     27  O   UNL     1      48.082  19.683  18.806  0.00  0.00    -0.421 OA
ATOM     28  C   UNL     1      47.752  16.217  19.675  0.00  0.00    +0.168 A 
ATOM     29  C   UNL     1      48.498  15.054  19.826  0.00  0.00    -0.119 A 
ATOM     35  C   UNL     1      49.875  15.089  19.700  0.00  0.00    +0.155 A 
ATOM     38  C   UNL     1      50.532  16.288  19.413  0.00  0.00    +0.060 A 
ENDROOT
BRANCH  13  14
ATOM     14  O   UNL     1      42.314  18.225  21.013  0.00  0.00    -0.483 OA
ATOM     15  H   UNL     1      41.729  17.768  20.393  0.00  0.00    +0.401 HD
ENDBRANCH  13  14
BRANCH  24  25
ATOM     25  O   UNL     1      45.956  20.938  19.618  0.00  0.00    -0.472 OA
ATOM     26  H   UNL     1      45.292  21.635  19.511  0.00  0.00    +0.403 HD
ENDBRANCH  24  25
BRANCH  35  36
ATOM     36  O   UNL     1      50.594  13.947  19.851  0.00  0.00    -0.479 OA
ATOM     37  H   UNL     1      50.321  13.407  20.605  0.00  0.00    +0.400 HD
ENDBRANCH  35  36
BRANCH  38  39
ATOM     39  O   UNL     1      51.886  16.308  19.281  0.00  0.00    -0.476 OA
ATOM     40  H   UNL     1      52.260  15.487  18.931  0.00  0.00    +0.390 HD
ENDBRANCH  38  39
BRANCH   6   5
ATOM      5  C   UNL     1      50.511  18.751  18.965  0.00  0.00    +0.129 C 
BRANCH   5   4
ATOM      1  C   UNL     1      51.111  21.143  17.595  0.00  0.00    +0.074 C 
ATOM      2  C   UNL     1      51.410  19.811  16.957  0.00  0.00    -0.131 C 
ATOM      3  C   UNL     1      52.093  19.755  15.615  0.00  0.00    +0.072 C 
ATOM      4  C   UNL     1      51.076  18.701  17.569  0.00  0.00    -0.033 C 
ENDBRANCH   5   4
ENDBRANCH   6   5
BRANCH  16  17
ATOM     17  C   UNL     1      43.278  20.823  20.505  0.00  0.00    +0.102 C 
BRANCH  17  18
ATOM     18  C   UNL     1      42.749  21.292  19.147  0.00  0.00    +0.000 C 
BRANCH  18  19
ATOM     19  C   UNL     1      41.284  20.879  19.000  0.00  0.00    +0.127 C 
ATOM     22  C   UNL     1      41.181  19.703  18.026  0.00  0.00    +0.008 C 
ATOM     23  C   UNL     1      40.472  22.059  18.463  0.00  0.00    +0.055 C 
BRANCH  19  20
ATOM     20  O   UNL     1      40.769  20.487  20.275  0.00  0.00    -0.559 OA
ATOM     21  H   UNL     1      39.865  20.785  20.442  0.00  0.00    +0.377 HD
ENDBRANCH  19  20
ENDBRANCH  18  19
ENDBRANCH  17  18
ENDBRANCH  16  17
BRANCH  29  30
ATOM     30  C   UNL     1      47.805  13.751  20.130  0.00  0.00    +0.136 C 
BRANCH  30  31
ATOM     31  C   UNL     1      47.472  13.046  18.840  0.00  0.00    -0.055 C 
ATOM     32  C   UNL     1      46.222  12.839  18.511  0.00  0.00    -0.125 C 
ATOM     33  C   UNL     1      45.889  12.174  17.200  0.00  0.00    +0.074 C 
ATOM     34  C   UNL     1      45.117  13.265  19.442  0.00  0.00    +0.077 C 
ENDBRANCH  30  31
ENDBRANCH  29  30
TORSDOF 12
ENDMDL
MODEL 6
REMARK VINA RESULT:      -6.0      2.471      8.444
REMARK  Name = ZINC95486191
REMARK  18 active torsions:
REMARK  status: ('A' for Active; 'I' for Inactive)
REMARK    1  A    between atoms: C1_1  and  C2_2
REMARK    2  A    between atoms: C2_2  and  C28_35
REMARK    3  A    between atoms: C3_3  and  C4_4
REMARK    4  A    between atoms: C4_4  and  C5_5
REMARK    5  A    between atoms: C11_12  and  O4_22
REMARK    6  A    between atoms: C12_13  and  C14_16
REMARK    7  A    between atoms: C13_14  and  O2_15
REMARK    8  A    between atoms: C14_16  and  C15_17
REMARK    9  A    between atoms: C15_17  and  C16_18
REMARK   10  A    between atoms: C16_18  and  C17_19
REMARK   11  A    between atoms: C16_18  and  C18_20
REMARK   12  A    between atoms: C16_18  and  O3_21
REMARK   13  A    between atoms: C20_25  and  C23_30
REMARK   14  A    between atoms: C21_26  and  O7_29
REMARK   15  A    between atoms: C22_27  and  O6_28
REMARK   16  A    between atoms: C23_30  and  C24_31
REMARK   17  A    between atoms: C25_32  and  C26_33
REMARK   18  A    between atoms: C25_32  and  C27_34
REMARK                            x       y       z     vdW  Elec       q    Type
REMARK                         _______ _______ _______ _____ _____    ______ ____
ROOT
ATOM      6  C   UNL     1      48.647  18.984  19.479  0.00  0.00    +0.001 A 
ATOM      7  C   UNL     1      48.109  17.741  19.142  0.00  0.00    -0.215 A 
ATOM      8  C   UNL     1      48.961  16.669  18.585  0.00  0.00    +0.441 A 
ATOM      9  C   UNL     1      48.249  15.522  17.995  0.00  0.00    -0.263 A 
ATOM     10  C   UNL     1      46.870  15.392  18.236  0.00  0.00    +0.186 A 
ATOM     11  O   UNL     1      46.214  16.279  19.010  0.00  0.00    -0.217 OA
ATOM     12  C   UNL     1      46.186  14.326  17.670  0.00  0.00    -0.029 A 
ATOM     13  C   UNL     1      46.858  13.402  16.885  0.00  0.00    +0.193 A 
ATOM     16  C   UNL     1      48.224  13.525  16.656  0.00  0.00    -0.169 A 
ATOM     24  C   UNL     1      48.925  14.581  17.208  0.00  0.00    +0.220 A 
ATOM     27  O   UNL     1      50.177  16.730  18.616  0.00  0.00    -0.421 OA
ATOM     28  C   UNL     1      46.740  17.483  19.316  0.00  0.00    +0.168 A 
ATOM     29  C   UNL     1      45.923  18.489  19.820  0.00  0.00    -0.119 A 
ATOM     35  C   UNL     1      46.459  19.720  20.148  0.00  0.00    +0.155 A 
ATOM     38  C   UNL     1      47.824  19.968  19.986  0.00  0.00    +0.060 A 
ENDROOT
BRANCH  13  14
ATOM     14  O   UNL     1      46.176  12.365  16.336  0.00  0.00    -0.483 OA
ATOM     15  H   UNL     1      46.212  11.551  16.856  0.00  0.00    +0.401 HD
ENDBRANCH  13  14
BRANCH  24  25
ATOM     25  O   UNL     1      50.258  14.705  16.988  0.00  0.00    -0.472 OA
ATOM     26  H   UNL     1      50.636  15.534  17.317  0.00  0.00    +0.403 HD
ENDBRANCH  24  25
BRANCH  35  36
ATOM     36  O   UNL     1      45.652  20.696  20.639  0.00  0.00    -0.479 OA
ATOM     37  H   UNL     1      44.869  20.868  20.098  0.00  0.00    +0.400 HD
ENDBRANCH  35  36
BRANCH  38  39
ATOM     39  O   UNL     1      48.341  21.180  20.322  0.00  0.00    -0.476 OA
ATOM     40  H   UNL     1      49.146  21.413  19.838  0.00  0.00    +0.390 HD
ENDBRANCH  38  39
BRANCH   6   5
ATOM      5  C   UNL     1      50.119  19.247  19.295  0.00  0.00    +0.129 C 
BRANCH   5   4
ATOM      1  C   UNL     1      52.638  19.457  18.042  0.00  0.00    +0.074 C 
ATOM      2  C   UNL     1      51.471  20.262  17.532  0.00  0.00    -0.131 C 
ATOM      3  C   UNL     1      51.631  21.129  16.310  0.00  0.00    +0.072 C 
ATOM      4  C   UNL     1      50.318  20.210  18.152  0.00  0.00    -0.033 C 
ENDBRANCH   5   4
ENDBRANCH   6   5
BRANCH  16  17
ATOM     17  C   UNL     1      48.939  12.508  15.805  0.00  0.00    +0.102 C 
BRANCH  17  18
ATOM     18  C   UNL     1      48.916  12.958  14.342  0.00  0.00    +0.000 C 
BRANCH  18  19
ATOM     19  C   UNL     1      50.295  12.738  13.718  0.00  0.00    +0.127 C 
ATOM     22  C   UNL     1      50.266  13.175  12.251  0.00  0.00    +0.008 C 
ATOM     23  C   UNL     1      50.662  11.255  13.803  0.00  0.00    +0.055 C 
BRANCH  19  20
ATOM     20  O   UNL     1      51.267  13.511  14.426  0.00  0.00    -0.559 OA
ATOM     21  H   UNL     1      52.075  13.026  14.640  0.00  0.00    +0.377 HD
ENDBRANCH  19  20
ENDBRANCH  18  19
ENDBRANCH  17  18
ENDBRANCH  16  17
BRANCH  29  30
ATOM     30  C   UNL     1      44.449  18.236  20.008  0.00  0.00    +0.136 C 
BRANCH  30  31
ATOM     31  C   UNL     1      43.663  19.181  19.135  0.00  0.00    -0.055 C 
ATOM     32  C   UNL     1      42.475  19.584  19.512  0.00  0.00    -0.125 C 
ATOM     33  C   UNL     1      41.708  20.564  18.662  0.00  0.00    +0.074 C 
ATOM     34  C   UNL     1      41.876  19.069  20.795  0.00  0.00    +0.077 C 
ENDBRANCH  30  31
ENDBRANCH  29  30
TORSDOF 12
ENDMDL
MODEL 7
REMARK VINA RESULT:      -5.8      1.783      5.554
REMARK  Name = ZINC95486191
REMARK  18 active torsions:
REMARK  status: ('A' for Active; 'I' for Inactive)
REMARK    1  A    between atoms: C1_1  and  C2_2
REMARK    2  A    between atoms: C2_2  and  C28_35
REMARK    3  A    between atoms: C3_3  and  C4_4
REMARK    4  A    between atoms: C4_4  and  C5_5
REMARK    5  A    between atoms: C11_12  and  O4_22
REMARK    6  A    between atoms: C12_13  and  C14_16
REMARK    7  A    between atoms: C13_14  and  O2_15
REMARK    8  A    between atoms: C14_16  and  C15_17
REMARK    9  A    between atoms: C15_17  and  C16_18
REMARK   10  A    between atoms: C16_18  and  C17_19
REMARK   11  A    between atoms: C16_18  and  C18_20
REMARK   12  A    between atoms: C16_18  and  O3_21
REMARK   13  A    between atoms: C20_25  and  C23_30
REMARK   14  A    between atoms: C21_26  and  O7_29
REMARK   15  A    between atoms: C22_27  and  O6_28
REMARK   16  A    between atoms: C23_30  and  C24_31
REMARK   17  A    between atoms: C25_32  and  C26_33
REMARK   18  A    between atoms: C25_32  and  C27_34
REMARK                            x       y       z     vdW  Elec       q    Type
REMARK                         _______ _______ _______ _____ _____    ______ ____
ROOT
ATOM      6  C   UNL     1      50.339  16.758  18.985  0.00  0.00    +0.001 A 
ATOM      7  C   UNL     1      48.951  16.867  19.086  0.00  0.00    -0.215 A 
ATOM      8  C   UNL     1      48.283  18.182  18.987  0.00  0.00    +0.441 A 
ATOM      9  C   UNL     1      46.870  18.218  19.400  0.00  0.00    -0.263 A 
ATOM     10  C   UNL     1      46.194  17.000  19.589  0.00  0.00    +0.186 A 
ATOM     11  O   UNL     1      46.814  15.822  19.374  0.00  0.00    -0.217 OA
ATOM     12  C   UNL     1      44.868  17.021  19.996  0.00  0.00    -0.029 A 
ATOM     13  C   UNL     1      44.221  18.230  20.205  0.00  0.00    +0.193 A 
ATOM     16  C   UNL     1      44.886  19.435  20.007  0.00  0.00    -0.169 A 
ATOM     24  C   UNL     1      46.209  19.436  19.604  0.00  0.00    +0.220 A 
ATOM     27  O   UNL     1      48.866  19.174  18.586  0.00  0.00    -0.421 OA
ATOM     28  C   UNL     1      48.156  15.728  19.292  0.00  0.00    +0.168 A 
ATOM     29  C   UNL     1      48.773  14.488  19.407  0.00  0.00    -0.119 A 
ATOM     35  C   UNL     1      50.149  14.384  19.311  0.00  0.00    +0.155 A 
ATOM     38  C   UNL     1      50.934  15.517  19.092  0.00  0.00    +0.060 A 
ENDROOT
BRANCH  13  14
ATOM     14  O   UNL     1      42.924  18.236  20.604  0.00  0.00    -0.483 OA
ATOM     15  H   UNL     1      42.502  17.367  20.582  0.00  0.00    +0.401 HD
ENDBRANCH  13  14
BRANCH  24  25
ATOM     25  O   UNL     1      46.862  20.609  19.409  0.00  0.00    -0.472 OA
ATOM     26  H   UNL     1      47.722  20.513  18.975  0.00  0.00    +0.403 HD
ENDBRANCH  24  25
BRANCH  35  36
ATOM     36  O   UNL     1      50.741  13.167  19.426  0.00  0.00    -0.479 OA
ATOM     37  H   UNL     1      50.168  12.426  19.187  0.00  0.00    +0.400 HD
ENDBRANCH  35  36
BRANCH  38  39
ATOM     39  O   UNL     1      52.285  15.401  18.990  0.00  0.00    -0.476 OA
ATOM     40  H   UNL     1      52.642  14.588  19.377  0.00  0.00    +0.390 HD
ENDBRANCH  38  39
BRANCH   6   5
ATOM      5  C   UNL     1      51.181  17.986  18.755  0.00  0.00    +0.129 C 
BRANCH   5   4
ATOM      1  C   UNL     1      51.948  20.488  17.701  0.00  0.00    +0.074 C 
ATOM      2  C   UNL     1      51.880  19.278  16.804  0.00  0.00    -0.131 C 
ATOM      3  C   UNL     1      52.287  19.390  15.358  0.00  0.00    +0.072 C 
ATOM      4  C   UNL     1      51.465  18.131  17.282  0.00  0.00    -0.033 C 
ENDBRANCH   5   4
ENDBRANCH   6   5
BRANCH  16  17
ATOM     17  C   UNL     1      44.165  20.738  20.234  0.00  0.00    +0.102 C 
BRANCH  17  18
ATOM     18  C   UNL     1      44.681  21.391  21.518  0.00  0.00    +0.000 C 
BRANCH  18  19
ATOM     19  C   UNL     1      44.903  22.885  21.278  0.00  0.00    +0.127 C 
ATOM     22  C   UNL     1      44.592  23.218  19.816  0.00  0.00    +0.008 C 
ATOM     23  C   UNL     1      46.359  23.241  21.584  0.00  0.00    +0.055 C 
BRANCH  19  20
ATOM     20  O   UNL     1      44.039  23.639  22.131  0.00  0.00    -0.559 OA
ATOM     21  H   UNL     1      44.501  24.257  22.713  0.00  0.00    +0.377 HD
ENDBRANCH  19  20
ENDBRANCH  18  19
ENDBRANCH  17  18
ENDBRANCH  16  17
BRANCH  29  30
ATOM     30  C   UNL     1      47.940  13.253  19.638  0.00  0.00    +0.136 C 
BRANCH  30  31
ATOM     31  C   UNL     1      47.642  12.594  18.315  0.00  0.00    -0.055 C 
ATOM     32  C   UNL     1      46.403  12.487  17.903  0.00  0.00    -0.125 C 
ATOM     33  C   UNL     1      46.108  11.868  16.561  0.00  0.00    +0.074 C 
ATOM     34  C   UNL     1      45.274  12.981  18.770  0.00  0.00    +0.077 C 
ENDBRANCH  30  31
ENDBRANCH  29  30
TORSDOF 12
ENDMDL
MODEL 8
REMARK VINA RESULT:      -5.4      2.465      7.055
REMARK  Name = ZINC95486191
REMARK  18 active torsions:
REMARK  status: ('A' for Active; 'I' for Inactive)
REMARK    1  A    between atoms: C1_1  and  C2_2
REMARK    2  A    between atoms: C2_2  and  C28_35
REMARK    3  A    between atoms: C3_3  and  C4_4
REMARK    4  A    between atoms: C4_4  and  C5_5
REMARK    5  A    between atoms: C11_12  and  O4_22
REMARK    6  A    between atoms: C12_13  and  C14_16
REMARK    7  A    between atoms: C13_14  and  O2_15
REMARK    8  A    between atoms: C14_16  and  C15_17
REMARK    9  A    between atoms: C15_17  and  C16_18
REMARK   10  A    between atoms: C16_18  and  C17_19
REMARK   11  A    between atoms: C16_18  and  C18_20
REMARK   12  A    between atoms: C16_18  and  O3_21
REMARK   13  A    between atoms: C20_25  and  C23_30
REMARK   14  A    between atoms: C21_26  and  O7_29
REMARK   15  A    between atoms: C22_27  and  O6_28
REMARK   16  A    between atoms: C23_30  and  C24_31
REMARK   17  A    between atoms: C25_32  and  C26_33
REMARK   18  A    between atoms: C25_32  and  C27_34
REMARK                            x       y       z     vdW  Elec       q    Type
REMARK                         _______ _______ _______ _____ _____    ______ ____
ROOT
ATOM      6  C   UNL     1      46.400  15.061  19.501  0.00  0.00    +0.001 A 
ATOM      7  C   UNL     1      47.600  15.478  18.922  0.00  0.00    -0.215 A 
ATOM      8  C   UNL     1      48.208  16.775  19.284  0.00  0.00    +0.441 A 
ATOM      9  C   UNL     1      49.296  17.243  18.408  0.00  0.00    -0.263 A 
ATOM     10  C   UNL     1      49.853  16.337  17.487  0.00  0.00    +0.186 A 
ATOM     11  O   UNL     1      49.421  15.062  17.420  0.00  0.00    -0.217 OA
ATOM     12  C   UNL     1      50.865  16.772  16.644  0.00  0.00    -0.029 A 
ATOM     13  C   UNL     1      51.322  18.079  16.717  0.00  0.00    +0.193 A 
ATOM     16  C   UNL     1      50.780  18.971  17.635  0.00  0.00    -0.169 A 
ATOM     24  C   UNL     1      49.768  18.560  18.484  0.00  0.00    +0.220 A 
ATOM     27  O   UNL     1      47.834  17.416  20.250  0.00  0.00    -0.421 OA
ATOM     28  C   UNL     1      48.253  14.675  17.972  0.00  0.00    +0.168 A 
ATOM     29  C   UNL     1      47.682  13.462  17.608  0.00  0.00    -0.119 A 
ATOM     35  C   UNL     1      46.491  13.054  18.180  0.00  0.00    +0.155 A 
ATOM     38  C   UNL     1      45.852  13.849  19.134  0.00  0.00    +0.060 A 
ENDROOT
BRANCH  13  14
ATOM     14  O   UNL     1      52.312  18.491  15.885  0.00  0.00    -0.483 OA
ATOM     15  H   UNL     1      52.691  17.784  15.345  0.00  0.00    +0.401 HD
ENDBRANCH  13  14
BRANCH  24  25
ATOM     25  O   UNL     1      49.235  19.426  19.382  0.00  0.00    -0.472 OA
ATOM     26  H   UNL     1      49.012  20.291  19.010  0.00  0.00    +0.403 HD
ENDBRANCH  24  25
BRANCH  35  36
ATOM     36  O   UNL     1      45.941  11.867  17.816  0.00  0.00    -0.479 OA
ATOM     37  H   UNL     1      46.547  11.117  17.878  0.00  0.00    +0.400 HD
ENDBRANCH  35  36
BRANCH  38  39
ATOM     39  O   UNL     1      44.686  13.433  19.697  0.00  0.00    -0.476 OA
ATOM     40  H   UNL     1      44.801  12.922  20.511  0.00  0.00    +0.390 HD
ENDBRANCH  38  39
BRANCH   6   5
ATOM      5  C   UNL     1      45.712  15.926  20.525  0.00  0.00    +0.129 C 
BRANCH   5   4
ATOM      1  C   UNL     1      44.631  18.127  21.920  0.00  0.00    +0.074 C 
ATOM      2  C   UNL     1      44.318  17.930  20.458  0.00  0.00    -0.131 C 
ATOM      3  C   UNL     1      43.482  18.946  19.724  0.00  0.00    +0.072 C 
ATOM      4  C   UNL     1      44.771  16.875  19.828  0.00  0.00    -0.033 C 
ENDBRANCH   5   4
ENDBRANCH   6   5
BRANCH  16  17
ATOM     17  C   UNL     1      51.293  20.386  17.705  0.00  0.00    +0.102 C 
BRANCH  17  18
ATOM     18  C   UNL     1      52.544  20.432  18.586  0.00  0.00    +0.000 C 
BRANCH  18  19
ATOM     19  C   UNL     1      52.191  21.046  19.941  0.00  0.00    +0.127 C 
ATOM     22  C   UNL     1      53.142  22.209  20.238  0.00  0.00    +0.008 C 
ATOM     23  C   UNL     1      52.328  19.984  21.034  0.00  0.00    +0.055 C 
BRANCH  19  20
ATOM     20  O   UNL     1      50.845  21.528  19.911  0.00  0.00    -0.559 OA
ATOM     21  H   UNL     1      50.248  20.991  19.373  0.00  0.00    +0.377 HD
ENDBRANCH  19  20
ENDBRANCH  18  19
ENDBRANCH  17  18
ENDBRANCH  16  17
BRANCH  29  30
ATOM     30  C   UNL     1      48.362  12.589  16.584  0.00  0.00    +0.136 C 
BRANCH  30  31
ATOM     31  C   UNL     1      47.815  12.901  15.215  0.00  0.00    -0.055 C 
ATOM     32  C   UNL     1      48.590  12.807  14.164  0.00  0.00    -0.125 C 
ATOM     33  C   UNL     1      48.032  13.076  12.790  0.00  0.00    +0.074 C 
ATOM     34  C   UNL     1      50.040  12.431  14.328  0.00  0.00    +0.077 C 
ENDBRANCH  30  31
ENDBRANCH  29  30
TORSDOF 12
ENDMDL
MODEL 9
REMARK VINA RESULT:      -5.3      3.198      9.397
REMARK  Name = ZINC95486191
REMARK  18 active torsions:
REMARK  status: ('A' for Active; 'I' for Inactive)
REMARK    1  A    between atoms: C1_1  and  C2_2
REMARK    2  A    between atoms: C2_2  and  C28_35
REMARK    3  A    between atoms: C3_3  and  C4_4
REMARK    4  A    between atoms: C4_4  and  C5_5
REMARK    5  A    between atoms: C11_12  and  O4_22
REMARK    6  A    between atoms: C12_13  and  C14_16
REMARK    7  A    between atoms: C13_14  and  O2_15
REMARK    8  A    between atoms: C14_16  and  C15_17
REMARK    9  A    between atoms: C15_17  and  C16_18
REMARK   10  A    between atoms: C16_18  and  C17_19
REMARK   11  A    between atoms: C16_18  and  C18_20
REMARK   12  A    between atoms: C16_18  and  O3_21
REMARK   13  A    between atoms: C20_25  and  C23_30
REMARK   14  A    between atoms: C21_26  and  O7_29
REMARK   15  A    between atoms: C22_27  and  O6_28
REMARK   16  A    between atoms: C23_30  and  C24_31
REMARK   17  A    between atoms: C25_32  and  C26_33
REMARK   18  A    between atoms: C25_32  and  C27_34
REMARK                            x       y       z     vdW  Elec       q    Type
REMARK                         _______ _______ _______ _____ _____    ______ ____
ROOT
ATOM      6  C   UNL     1      48.381  19.461  19.612  0.00  0.00    +0.001 A 
ATOM      7  C   UNL     1      48.834  18.224  20.074  0.00  0.00    -0.215 A 
ATOM      8  C   UNL     1      50.230  18.044  20.522  0.00  0.00    +0.441 A 
ATOM      9  C   UNL     1      50.674  16.651  20.702  0.00  0.00    -0.263 A 
ATOM     10  C   UNL     1      49.705  15.633  20.706  0.00  0.00    +0.186 A 
ATOM     11  O   UNL     1      48.395  15.921  20.573  0.00  0.00    -0.217 OA
ATOM     12  C   UNL     1      50.113  14.315  20.855  0.00  0.00    -0.029 A 
ATOM     13  C   UNL     1      51.458  14.014  21.007  0.00  0.00    +0.193 A 
ATOM     16  C   UNL     1      52.415  15.022  21.014  0.00  0.00    -0.169 A 
ATOM     24  C   UNL     1      52.031  16.341  20.863  0.00  0.00    +0.220 A 
ATOM     27  O   UNL     1      50.967  18.991  20.733  0.00  0.00    -0.421 OA
ATOM     28  C   UNL     1      47.971  17.116  20.113  0.00  0.00    +0.168 A 
ATOM     29  C   UNL     1      46.661  17.266  19.675  0.00  0.00    -0.119 A 
ATOM     35  C   UNL     1      46.217  18.492  19.215  0.00  0.00    +0.155 A 
ATOM     38  C   UNL     1      47.074  19.594  19.189  0.00  0.00    +0.060 A 
ENDROOT
BRANCH  13  14
ATOM     14  O   UNL     1      51.844  12.720  21.151  0.00  0.00    -0.483 OA
ATOM     15  H   UNL     1      51.157  12.078  20.924  0.00  0.00    +0.401 HD
ENDBRANCH  13  14
BRANCH  24  25
ATOM     25  O   UNL     1      52.961  17.329  20.871  0.00  0.00    -0.472 OA
ATOM     26  H   UNL     1      53.624  17.240  21.571  0.00  0.00    +0.403 HD
ENDBRANCH  24  25
BRANCH  35  36
ATOM     36  O   UNL     1      44.935  18.627  18.788  0.00  0.00    -0.479 OA
ATOM     37  H   UNL     1      44.519  19.460  19.048  0.00  0.00    +0.400 HD
ENDBRANCH  35  36
BRANCH  38  39
ATOM     39  O   UNL     1      46.624  20.797  18.744  0.00  0.00    -0.476 OA
ATOM     40  H   UNL     1      46.589  20.873  17.779  0.00  0.00    +0.390 HD
ENDBRANCH  38  39
BRANCH   6   5
ATOM      5  C   UNL     1      49.313  20.645  19.582  0.00  0.00    +0.129 C 
BRANCH   5   4
ATOM      1  C   UNL     1      51.991  21.393  19.108  0.00  0.00    +0.074 C 
ATOM      2  C   UNL     1      51.057  21.152  17.949  0.00  0.00    -0.131 C 
ATOM      3  C   UNL     1      51.571  21.245  16.536  0.00  0.00    +0.072 C 
ATOM      4  C   UNL     1      49.798  20.864  18.172  0.00  0.00    -0.033 C 
ENDBRANCH   5   4
ENDBRANCH   6   5
BRANCH  16  17
ATOM     17  C   UNL     1      53.872  14.676  21.185  0.00  0.00    +0.102 C 
BRANCH  17  18
ATOM     18  C   UNL     1      54.570  14.716  19.823  0.00  0.00    +0.000 C 
BRANCH  18  19
ATOM     19  C   UNL     1      56.064  14.977  20.024  0.00  0.00    +0.127 C 
ATOM     22  C   UNL     1      56.766  13.665  20.386  0.00  0.00    +0.008 C 
ATOM     23  C   UNL     1      56.258  15.989  21.154  0.00  0.00    +0.055 C 
BRANCH  19  20
ATOM     20  O   UNL     1      56.623  15.498  18.816  0.00  0.00    -0.559 OA
ATOM     21  H   UNL     1      55.992  15.566  18.087  0.00  0.00    +0.377 HD
ENDBRANCH  19  20
ENDBRANCH  18  19
ENDBRANCH  17  18
ENDBRANCH  16  17
BRANCH  29  30
ATOM     30  C   UNL     1      45.720  16.088  19.701  0.00  0.00    +0.136 C 
BRANCH  30  31
ATOM     31  C   UNL     1      46.007  15.191  18.524  0.00  0.00    -0.055 C 
ATOM     32  C   UNL     1      45.723  13.914  18.590  0.00  0.00    -0.125 C 
ATOM     33  C   UNL     1      45.968  13.025  17.398  0.00  0.00    +0.074 C 
ATOM     34  C   UNL     1      45.151  13.334  19.858  0.00  0.00    +0.077 C 
ENDBRANCH  30  31
ENDBRANCH  29  30
TORSDOF 12
ENDMDL
