MODEL 1
REMARK VINA RESULT:      -6.0      0.000      0.000
REMARK  Name = ZINC01684797
REMARK  7 active torsions:
REMARK  status: ('A' for Active; 'I' for Inactive)
REMARK    1  A    between atoms: C1_1  and  C2_2
REMARK    2  A    between atoms: C2_2  and  C23_32
REMARK    3  A    between atoms: C8_8  and  O6_30
REMARK    4  A    between atoms: C15_18  and  O5_28
REMARK    5  A    between atoms: C16_19  and  O4_26
REMARK    6  A    between atoms: O4_26  and  C21_27
REMARK    7  A    between atoms: O5_28  and  C22_29
REMARK                            x       y       z     vdW  Elec       q    Type
REMARK                         _______ _______ _______ _____ _____    ______ ____
ROOT
ATOM      1  C   UNL     1      47.969  12.159  14.261  0.00  0.00    +0.039 C 
ATOM      2  C   UNL     1      48.947  11.840  15.394  0.00  0.00    +0.146 C 
ATOM      3  C   UNL     1      49.756  10.596  15.025  0.00  0.00    +0.087 C 
ATOM      4  C   UNL     1      49.885  13.004  15.583  0.00  0.00    -0.052 C 
ATOM      5  C   UNL     1      49.558  13.994  16.412  0.00  0.00    +0.061 C 
ATOM      6  C   UNL     1      48.271  13.900  17.134  0.00  0.00    -0.181 A 
ATOM      7  C   UNL     1      47.628  12.652  17.195  0.00  0.00    +0.220 A 
ATOM      8  C   UNL     1      46.420  12.521  17.859  0.00  0.00    -0.063 A 
ATOM      9  C   UNL     1      45.839  13.621  18.469  0.00  0.00    +0.243 A 
ATOM     12  C   UNL     1      46.475  14.871  18.414  0.00  0.00    -0.304 A 
ATOM     13  C   UNL     1      45.861  16.047  19.054  0.00  0.00    +0.420 C 
ATOM     14  O   UNL     1      44.923  15.956  19.819  0.00  0.00    -0.420 OA
ATOM     15  C   UNL     1      46.484  17.378  18.687  0.00  0.00    +0.013 C 
ATOM     16  C   UNL     1      46.139  18.433  19.698  0.00  0.00    -0.160 A 
ATOM     17  C   UNL     1      44.859  18.487  20.224  0.00  0.00    +0.044 A 
ATOM     18  C   UNL     1      44.516  19.473  21.130  0.00  0.00    +0.071 A 
ATOM     21  C   UNL     1      45.464  20.416  21.516  0.00  0.00    +0.144 A 
ATOM     24  C   UNL     1      46.744  20.359  20.995  0.00  0.00    -0.058 A 
ATOM     25  C   UNL     1      47.089  19.365  20.085  0.00  0.00    +0.138 A 
ATOM     26  O   UNL     1      48.362  19.345  19.607  0.00  0.00    -0.299 OA
ATOM     27  C   UNL     1      48.665  18.518  18.479  0.00  0.00    +0.294 C 
ATOM     28  C   UNL     1      48.007  17.160  18.703  0.00  0.00    +0.156 C 
ATOM     29  O   UNL     1      48.343  16.213  17.697  0.00  0.00    -0.283 OA
ATOM     30  C   UNL     1      47.704  15.015  17.746  0.00  0.00    +0.234 A 
ATOM     31  O   UNL     1      48.214  11.588  16.593  0.00  0.00    -0.295 OA
ENDROOT
BRANCH   9  10
ATOM     10  O   UNL     1      44.656  13.489  19.119  0.00  0.00    -0.477 OA
ATOM     11  H   UNL     1      44.420  14.251  19.666  0.00  0.00    +0.406 HD
ENDBRANCH   9  10
BRANCH  18  19
ATOM     19  O   UNL     1      43.256  19.522  21.644  0.00  0.00    -0.304 OA
ATOM     20  C   UNL     1      42.560  18.280  21.770  0.00  0.00    +0.239 C 
ENDBRANCH  18  19
BRANCH  21  22
ATOM     22  O   UNL     1      45.133  21.390  22.405  0.00  0.00    -0.299 OA
ATOM     23  C   UNL     1      44.806  22.674  21.868  0.00  0.00    +0.242 C 
ENDBRANCH  21  22
TORSDOF 3
ENDMDL
MODEL 2
REMARK VINA RESULT:      -5.8      2.146      8.023
REMARK  Name = ZINC01684797
REMARK  7 active torsions:
REMARK  status: ('A' for Active; 'I' for Inactive)
REMARK    1  A    between atoms: C1_1  and  C2_2
REMARK    2  A    between atoms: C2_2  and  C23_32
REMARK    3  A    between atoms: C8_8  and  O6_30
REMARK    4  A    between atoms: C15_18  and  O5_28
REMARK    5  A    between atoms: C16_19  and  O4_26
REMARK    6  A    between atoms: O4_26  and  C21_27
REMARK    7  A    between atoms: O5_28  and  C22_29
REMARK                            x       y       z     vdW  Elec       q    Type
REMARK                         _______ _______ _______ _____ _____    ______ ____
ROOT
ATOM      1  C   UNL     1      44.730  21.577  21.451  0.00  0.00    +0.039 C 
ATOM      2  C   UNL     1      44.318  21.608  19.978  0.00  0.00    +0.146 C 
ATOM      3  C   UNL     1      43.260  22.693  19.773  0.00  0.00    +0.087 C 
ATOM      4  C   UNL     1      45.524  21.926  19.132  0.00  0.00    -0.052 C 
ATOM      5  C   UNL     1      46.303  20.940  18.688  0.00  0.00    +0.061 C 
ATOM      6  C   UNL     1      45.936  19.552  19.040  0.00  0.00    -0.181 A 
ATOM      7  C   UNL     1      44.635  19.301  19.508  0.00  0.00    +0.220 A 
ATOM      8  C   UNL     1      44.252  18.016  19.851  0.00  0.00    -0.063 A 
ATOM      9  C   UNL     1      45.150  16.967  19.732  0.00  0.00    +0.243 A 
ATOM     12  C   UNL     1      46.452  17.208  19.265  0.00  0.00    -0.304 A 
ATOM     13  C   UNL     1      47.415  16.101  19.143  0.00  0.00    +0.420 C 
ATOM     14  O   UNL     1      47.082  14.937  19.226  0.00  0.00    -0.420 OA
ATOM     15  C   UNL     1      48.851  16.521  18.907  0.00  0.00    +0.013 C 
ATOM     16  C   UNL     1      49.658  15.389  18.339  0.00  0.00    -0.160 A 
ATOM     17  C   UNL     1      49.473  14.104  18.821  0.00  0.00    +0.044 A 
ATOM     18  C   UNL     1      50.233  13.057  18.331  0.00  0.00    +0.071 A 
ATOM     21  C   UNL     1      51.188  13.298  17.348  0.00  0.00    +0.144 A 
ATOM     24  C   UNL     1      51.369  14.581  16.863  0.00  0.00    -0.058 A 
ATOM     25  C   UNL     1      50.603  15.633  17.354  0.00  0.00    +0.138 A 
ATOM     26  O   UNL     1      50.811  16.874  16.840  0.00  0.00    -0.299 OA
ATOM     27  C   UNL     1      50.244  18.005  17.509  0.00  0.00    +0.294 C 
ATOM     28  C   UNL     1      48.804  17.659  17.874  0.00  0.00    +0.156 C 
ATOM     29  O   UNL     1      48.100  18.759  18.439  0.00  0.00    -0.283 OA
ATOM     30  C   UNL     1      46.850  18.510  18.910  0.00  0.00    +0.234 A 
ATOM     31  O   UNL     1      43.771  20.340  19.614  0.00  0.00    -0.295 OA
ENDROOT
BRANCH   9  10
ATOM     10  O   UNL     1      44.772  15.709  20.068  0.00  0.00    -0.477 OA
ATOM     11  H   UNL     1      43.814  15.585  20.111  0.00  0.00    +0.406 HD
ENDBRANCH   9  10
BRANCH  18  19
ATOM     19  O   UNL     1      50.046  11.796  18.808  0.00  0.00    -0.304 OA
ATOM     20  C   UNL     1      48.696  11.365  18.992  0.00  0.00    +0.239 C 
ENDBRANCH  18  19
BRANCH  21  22
ATOM     22  O   UNL     1      51.939  12.274  16.863  0.00  0.00    -0.299 OA
ATOM     23  C   UNL     1      51.900  12.051  15.452  0.00  0.00    +0.242 C 
ENDBRANCH  21  22
TORSDOF 3
ENDMDL
MODEL 3
REMARK VINA RESULT:      -5.8      1.249      1.313
REMARK  Name = ZINC01684797
REMARK  7 active torsions:
REMARK  status: ('A' for Active; 'I' for Inactive)
REMARK    1  A    between atoms: C1_1  and  C2_2
REMARK    2  A    between atoms: C2_2  and  C23_32
REMARK    3  A    between atoms: C8_8  and  O6_30
REMARK    4  A    between atoms: C15_18  and  O5_28
REMARK    5  A    between atoms: C16_19  and  O4_26
REMARK    6  A    between atoms: O4_26  and  C21_27
REMARK    7  A    between atoms: O5_28  and  C22_29
REMARK                            x       y       z     vdW  Elec       q    Type
REMARK                         _______ _______ _______ _____ _____    ______ ____
ROOT
ATOM      1  C   UNL     1      49.397  12.521  14.217  0.00  0.00    +0.039 C 
ATOM      2  C   UNL     1      50.172  12.268  15.511  0.00  0.00    +0.146 C 
ATOM      3  C   UNL     1      51.032  11.014  15.348  0.00  0.00    +0.087 C 
ATOM      4  C   UNL     1      51.065  13.448  15.794  0.00  0.00    -0.052 C 
ATOM      5  C   UNL     1      50.604  14.476  16.505  0.00  0.00    +0.061 C 
ATOM      6  C   UNL     1      49.214  14.407  17.006  0.00  0.00    -0.181 A 
ATOM      7  C   UNL     1      48.570  13.158  17.023  0.00  0.00    +0.220 A 
ATOM      8  C   UNL     1      47.269  13.050  17.482  0.00  0.00    -0.063 A 
ATOM      9  C   UNL     1      46.593  14.174  17.929  0.00  0.00    +0.243 A 
ATOM     12  C   UNL     1      47.229  15.426  17.917  0.00  0.00    -0.304 A 
ATOM     13  C   UNL     1      46.516  16.627  18.384  0.00  0.00    +0.420 C 
ATOM     14  O   UNL     1      45.464  16.566  18.986  0.00  0.00    -0.420 OA
ATOM     15  C   UNL     1      47.191  17.943  18.059  0.00  0.00    +0.013 C 
ATOM     16  C   UNL     1      46.681  19.044  18.942  0.00  0.00    -0.160 A 
ATOM     17  C   UNL     1      45.331  19.113  19.244  0.00  0.00    +0.044 A 
ATOM     18  C   UNL     1      44.841  20.141  20.029  0.00  0.00    +0.071 A 
ATOM     21  C   UNL     1      45.711  21.111  20.518  0.00  0.00    +0.144 A 
ATOM     24  C   UNL     1      47.060  21.039  20.222  0.00  0.00    -0.058 A 
ATOM     25  C   UNL     1      47.553  20.003  19.435  0.00  0.00    +0.138 A 
ATOM     26  O   UNL     1      48.888  19.971  19.177  0.00  0.00    -0.299 OA
ATOM     27  C   UNL     1      49.376  19.090  18.160  0.00  0.00    +0.294 C 
ATOM     28  C   UNL     1      48.690  17.740  18.340  0.00  0.00    +0.156 C 
ATOM     29  O   UNL     1      49.190  16.746  17.454  0.00  0.00    -0.283 OA
ATOM     30  C   UNL     1      48.553  15.546  17.457  0.00  0.00    +0.234 A 
ATOM     31  O   UNL     1      49.249  12.070  16.583  0.00  0.00    -0.295 OA
ENDROOT
BRANCH   9  10
ATOM     10  O   UNL     1      45.318  14.065  18.379  0.00  0.00    -0.477 OA
ATOM     11  H   UNL     1      44.817  14.891  18.346  0.00  0.00    +0.406 HD
ENDBRANCH   9  10
BRANCH  18  19
ATOM     19  O   UNL     1      43.514  20.204  20.322  0.00  0.00    -0.304 OA
ATOM     20  C   UNL     1      42.628  20.535  19.250  0.00  0.00    +0.239 C 
ENDBRANCH  18  19
BRANCH  21  22
ATOM     22  O   UNL     1      45.236  22.126  21.289  0.00  0.00    -0.299 OA
ATOM     23  C   UNL     1      45.088  23.401  20.661  0.00  0.00    +0.242 C 
ENDBRANCH  21  22
TORSDOF 3
ENDMDL
MODEL 4
REMARK VINA RESULT:      -5.7      2.027      2.224
REMARK  Name = ZINC01684797
REMARK  7 active torsions:
REMARK  status: ('A' for Active; 'I' for Inactive)
REMARK    1  A    between atoms: C1_1  and  C2_2
REMARK    2  A    between atoms: C2_2  and  C23_32
REMARK    3  A    between atoms: C8_8  and  O6_30
REMARK    4  A    between atoms: C15_18  and  O5_28
REMARK    5  A    between atoms: C16_19  and  O4_26
REMARK    6  A    between atoms: O4_26  and  C21_27
REMARK    7  A    between atoms: O5_28  and  C22_29
REMARK                            x       y       z     vdW  Elec       q    Type
REMARK                         _______ _______ _______ _____ _____    ______ ____
ROOT
ATOM      1  C   UNL     1      50.268  12.381  16.631  0.00  0.00    +0.039 C 
ATOM      2  C   UNL     1      50.674  12.497  18.101  0.00  0.00    +0.146 C 
ATOM      3  C   UNL     1      51.591  11.327  18.465  0.00  0.00    +0.087 C 
ATOM      4  C   UNL     1      51.415  13.791  18.311  0.00  0.00    -0.052 C 
ATOM      5  C   UNL     1      50.743  14.901  18.616  0.00  0.00    +0.061 C 
ATOM      6  C   UNL     1      49.273  14.808  18.750  0.00  0.00    -0.181 A 
ATOM      7  C   UNL     1      48.694  13.537  18.900  0.00  0.00    +0.220 A 
ATOM      8  C   UNL     1      47.321  13.406  19.026  0.00  0.00    -0.063 A 
ATOM      9  C   UNL     1      46.510  14.530  19.006  0.00  0.00    +0.243 A 
ATOM     12  C   UNL     1      47.081  15.804  18.857  0.00  0.00    -0.304 A 
ATOM     13  C   UNL     1      46.226  17.003  18.828  0.00  0.00    +0.420 C 
ATOM     14  O   UNL     1      45.054  16.974  19.139  0.00  0.00    -0.420 OA
ATOM     15  C   UNL     1      46.917  18.274  18.381  0.00  0.00    +0.013 C 
ATOM     16  C   UNL     1      46.149  19.488  18.816  0.00  0.00    -0.160 A 
ATOM     17  C   UNL     1      44.766  19.490  18.740  0.00  0.00    +0.044 A 
ATOM     18  C   UNL     1      44.046  20.613  19.107  0.00  0.00    +0.071 A 
ATOM     21  C   UNL     1      44.717  21.746  19.555  0.00  0.00    +0.144 A 
ATOM     24  C   UNL     1      46.098  21.743  19.636  0.00  0.00    -0.058 A 
ATOM     25  C   UNL     1      46.821  20.613  19.270  0.00  0.00    +0.138 A 
ATOM     26  O   UNL     1      48.176  20.655  19.375  0.00  0.00    -0.299 OA
ATOM     27  C   UNL     1      48.951  19.624  18.755  0.00  0.00    +0.294 C 
ATOM     28  C   UNL     1      48.290  18.286  19.072  0.00  0.00    +0.156 C 
ATOM     29  O   UNL     1      49.046  17.174  18.606  0.00  0.00    -0.283 OA
ATOM     30  C   UNL     1      48.475  15.949  18.733  0.00  0.00    +0.234 A 
ATOM     31  O   UNL     1      49.504  12.451  18.919  0.00  0.00    -0.295 OA
ENDROOT
BRANCH   9  10
ATOM     10  O   UNL     1      45.167  14.398  19.130  0.00  0.00    -0.477 OA
ATOM     11  H   UNL     1      44.689  14.424  18.290  0.00  0.00    +0.406 HD
ENDBRANCH   9  10
BRANCH  18  19
ATOM     19  O   UNL     1      42.687  20.608  19.029  0.00  0.00    -0.304 OA
ATOM     20  C   UNL     1      41.995  19.651  19.833  0.00  0.00    +0.239 C 
ENDBRANCH  18  19
BRANCH  21  22
ATOM     22  O   UNL     1      44.016  22.855  19.914  0.00  0.00    -0.299 OA
ATOM     23  C   UNL     1      44.340  24.073  19.241  0.00  0.00    +0.242 C 
ENDBRANCH  21  22
TORSDOF 3
ENDMDL
MODEL 5
REMARK VINA RESULT:      -5.5      1.708      2.152
REMARK  Name = ZINC01684797
REMARK  7 active torsions:
REMARK  status: ('A' for Active; 'I' for Inactive)
REMARK    1  A    between atoms: C1_1  and  C2_2
REMARK    2  A    between atoms: C2_2  and  C23_32
REMARK    3  A    between atoms: C8_8  and  O6_30
REMARK    4  A    between atoms: C15_18  and  O5_28
REMARK    5  A    between atoms: C16_19  and  O4_26
REMARK    6  A    between atoms: O4_26  and  C21_27
REMARK    7  A    between atoms: O5_28  and  C22_29
REMARK                            x       y       z     vdW  Elec       q    Type
REMARK                         _______ _______ _______ _____ _____    ______ ____
ROOT
ATOM      1  C   UNL     1      50.003  12.847  12.443  0.00  0.00    +0.039 C 
ATOM      2  C   UNL     1      50.657  12.048  13.572  0.00  0.00    +0.146 C 
ATOM      3  C   UNL     1      51.475  10.902  12.972  0.00  0.00    +0.087 C 
ATOM      4  C   UNL     1      51.572  12.952  14.355  0.00  0.00    -0.052 C 
ATOM      5  C   UNL     1      51.097  13.645  15.389  0.00  0.00    +0.061 C 
ATOM      6  C   UNL     1      49.670  13.483  15.738  0.00  0.00    -0.181 A 
ATOM      7  C   UNL     1      48.974  12.379  15.216  0.00  0.00    +0.220 A 
ATOM      8  C   UNL     1      47.636  12.191  15.515  0.00  0.00    -0.063 A 
ATOM      9  C   UNL     1      46.973  13.092  16.334  0.00  0.00    +0.243 A 
ATOM     12  C   UNL     1      47.660  14.197  16.861  0.00  0.00    -0.304 A 
ATOM     13  C   UNL     1      46.962  15.163  17.726  0.00  0.00    +0.420 C 
ATOM     14  O   UNL     1      45.862  14.945  18.190  0.00  0.00    -0.420 OA
ATOM     15  C   UNL     1      47.717  16.448  17.995  0.00  0.00    +0.013 C 
ATOM     16  C   UNL     1      47.182  17.144  19.213  0.00  0.00    -0.160 A 
ATOM     17  C   UNL     1      45.816  17.184  19.436  0.00  0.00    +0.044 A 
ATOM     18  C   UNL     1      45.306  17.850  20.537  0.00  0.00    +0.071 A 
ATOM     21  C   UNL     1      46.173  18.482  21.423  0.00  0.00    +0.144 A 
ATOM     24  C   UNL     1      47.537  18.437  21.203  0.00  0.00    -0.058 A 
ATOM     25  C   UNL     1      48.049  17.765  20.098  0.00  0.00    +0.138 A 
ATOM     26  O   UNL     1      49.398  17.741  19.929  0.00  0.00    -0.299 OA
ATOM     27  C   UNL     1      49.931  17.303  18.676  0.00  0.00    +0.294 C 
ATOM     28  C   UNL     1      49.177  16.044  18.260  0.00  0.00    +0.156 C 
ATOM     29  O   UNL     1      49.706  15.449  17.081  0.00  0.00    -0.283 OA
ATOM     30  C   UNL     1      49.021  14.395  16.566  0.00  0.00    +0.234 A 
ATOM     31  O   UNL     1      49.641  11.509  14.418  0.00  0.00    -0.295 OA
ENDROOT
BRANCH   9  10
ATOM     10  O   UNL     1      45.663  12.905  16.626  0.00  0.00    -0.477 OA
ATOM     11  H   UNL     1      45.060  13.435  16.086  0.00  0.00    +0.406 HD
ENDBRANCH   9  10
BRANCH  18  19
ATOM     19  O   UNL     1      43.963  17.887  20.751  0.00  0.00    -0.304 OA
ATOM     20  C   UNL     1      43.222  18.890  20.053  0.00  0.00    +0.239 C 
ENDBRANCH  18  19
BRANCH  21  22
ATOM     22  O   UNL     1      45.678  19.140  22.506  0.00  0.00    -0.299 OA
ATOM     23  C   UNL     1      45.751  20.568  22.485  0.00  0.00    +0.242 C 
ENDBRANCH  21  22
TORSDOF 3
ENDMDL
MODEL 6
REMARK VINA RESULT:      -5.3      1.729      8.778
REMARK  Name = ZINC01684797
REMARK  7 active torsions:
REMARK  status: ('A' for Active; 'I' for Inactive)
REMARK    1  A    between atoms: C1_1  and  C2_2
REMARK    2  A    between atoms: C2_2  and  C23_32
REMARK    3  A    between atoms: C8_8  and  O6_30
REMARK    4  A    between atoms: C15_18  and  O5_28
REMARK    5  A    between atoms: C16_19  and  O4_26
REMARK    6  A    between atoms: O4_26  and  C21_27
REMARK    7  A    between atoms: O5_28  and  C22_29
REMARK                            x       y       z     vdW  Elec       q    Type
REMARK                         _______ _______ _______ _____ _____    ______ ____
ROOT
ATOM      1  C   UNL     1      45.130  22.147  19.132  0.00  0.00    +0.039 C 
ATOM      2  C   UNL     1      45.454  21.632  20.536  0.00  0.00    +0.146 C 
ATOM      3  C   UNL     1      45.003  22.667  21.568  0.00  0.00    +0.087 C 
ATOM      4  C   UNL     1      44.716  20.341  20.774  0.00  0.00    -0.052 C 
ATOM      5  C   UNL     1      45.278  19.181  20.435  0.00  0.00    +0.061 C 
ATOM      6  C   UNL     1      46.632  19.212  19.842  0.00  0.00    -0.181 A 
ATOM      7  C   UNL     1      47.396  20.383  19.979  0.00  0.00    +0.220 A 
ATOM      8  C   UNL     1      48.668  20.455  19.437  0.00  0.00    -0.063 A 
ATOM      9  C   UNL     1      49.195  19.370  18.755  0.00  0.00    +0.243 A 
ATOM     12  C   UNL     1      48.439  18.195  18.613  0.00  0.00    -0.304 A 
ATOM     13  C   UNL     1      48.989  17.040  17.884  0.00  0.00    +0.420 C 
ATOM     14  O   UNL     1      50.159  16.965  17.571  0.00  0.00    -0.420 OA
ATOM     15  C   UNL     1      47.988  15.953  17.553  0.00  0.00    +0.013 C 
ATOM     16  C   UNL     1      48.680  14.655  17.252  0.00  0.00    -0.160 A 
ATOM     17  C   UNL     1      49.845  14.656  16.504  0.00  0.00    +0.044 A 
ATOM     18  C   UNL     1      50.476  13.465  16.190  0.00  0.00    +0.071 A 
ATOM     21  C   UNL     1      49.935  12.261  16.631  0.00  0.00    +0.144 A 
ATOM     24  C   UNL     1      48.775  12.261  17.383  0.00  0.00    -0.058 A 
ATOM     25  C   UNL     1      48.142  13.459  17.700  0.00  0.00    +0.138 A 
ATOM     26  O   UNL     1      47.008  13.408  18.448  0.00  0.00    -0.299 OA
ATOM     27  C   UNL     1      46.196  14.581  18.555  0.00  0.00    +0.294 C 
ATOM     28  C   UNL     1      47.119  15.769  18.808  0.00  0.00    +0.156 C 
ATOM     29  O   UNL     1      46.409  16.976  19.053  0.00  0.00    -0.283 OA
ATOM     30  C   UNL     1      47.148  18.111  19.165  0.00  0.00    +0.234 A 
ATOM     31  O   UNL     1      46.863  21.433  20.651  0.00  0.00    -0.295 OA
ENDROOT
BRANCH   9  10
ATOM     10  O   UNL     1      50.441  19.443  18.225  0.00  0.00    -0.477 OA
ATOM     11  H   UNL     1      50.939  18.616  18.275  0.00  0.00    +0.406 HD
ENDBRANCH   9  10
BRANCH  18  19
ATOM     19  O   UNL     1      51.621  13.472  15.454  0.00  0.00    -0.304 OA
ATOM     20  C   UNL     1      51.480  13.588  14.037  0.00  0.00    +0.239 C 
ENDBRANCH  18  19
BRANCH  21  22
ATOM     22  O   UNL     1      50.549  11.087  16.324  0.00  0.00    -0.299 OA
ATOM     23  C   UNL     1      50.012  10.341  15.229  0.00  0.00    +0.242 C 
ENDBRANCH  21  22
TORSDOF 3
ENDMDL
MODEL 7
REMARK VINA RESULT:      -4.8      1.855      3.949
REMARK  Name = ZINC01684797
REMARK  7 active torsions:
REMARK  status: ('A' for Active; 'I' for Inactive)
REMARK    1  A    between atoms: C1_1  and  C2_2
REMARK    2  A    between atoms: C2_2  and  C23_32
REMARK    3  A    between atoms: C8_8  and  O6_30
REMARK    4  A    between atoms: C15_18  and  O5_28
REMARK    5  A    between atoms: C16_19  and  O4_26
REMARK    6  A    between atoms: O4_26  and  C21_27
REMARK    7  A    between atoms: O5_28  and  C22_29
REMARK                            x       y       z     vdW  Elec       q    Type
REMARK                         _______ _______ _______ _____ _____    ______ ____
ROOT
ATOM      1  C   UNL     1      52.800  11.122  16.973  0.00  0.00    +0.039 C 
ATOM      2  C   UNL     1      51.857  11.170  15.769  0.00  0.00    +0.146 C 
ATOM      3  C   UNL     1      52.411  10.277  14.658  0.00  0.00    +0.087 C 
ATOM      4  C   UNL     1      50.499  10.664  16.182  0.00  0.00    -0.052 C 
ATOM      5  C   UNL     1      49.595  11.510  16.673  0.00  0.00    +0.061 C 
ATOM      6  C   UNL     1      49.965  12.938  16.781  0.00  0.00    -0.181 A 
ATOM      7  C   UNL     1      51.081  13.396  16.060  0.00  0.00    +0.220 A 
ATOM      8  C   UNL     1      51.463  14.725  16.135  0.00  0.00    -0.063 A 
ATOM      9  C   UNL     1      50.746  15.611  16.922  0.00  0.00    +0.243 A 
ATOM     12  C   UNL     1      49.630  15.163  17.646  0.00  0.00    -0.304 A 
ATOM     13  C   UNL     1      48.866  16.096  18.491  0.00  0.00    +0.420 C 
ATOM     14  O   UNL     1      49.021  17.299  18.436  0.00  0.00    -0.420 OA
ATOM     15  C   UNL     1      47.874  15.447  19.433  0.00  0.00    +0.013 C 
ATOM     16  C   UNL     1      46.840  16.433  19.893  0.00  0.00    -0.160 A 
ATOM     17  C   UNL     1      47.219  17.728  20.208  0.00  0.00    +0.044 A 
ATOM     18  C   UNL     1      46.283  18.639  20.664  0.00  0.00    +0.071 A 
ATOM     21  C   UNL     1      44.954  18.250  20.807  0.00  0.00    +0.144 A 
ATOM     24  C   UNL     1      44.576  16.959  20.487  0.00  0.00    -0.058 A 
ATOM     25  C   UNL     1      45.516  16.045  20.025  0.00  0.00    +0.138 A 
ATOM     26  O   UNL     1      45.094  14.790  19.716  0.00  0.00    -0.299 OA
ATOM     27  C   UNL     1      46.069  13.763  19.506  0.00  0.00    +0.294 C 
ATOM     28  C   UNL     1      47.174  14.339  18.627  0.00  0.00    +0.156 C 
ATOM     29  O   UNL     1      48.142  13.367  18.252  0.00  0.00    -0.283 OA
ATOM     30  C   UNL     1      49.230  13.816  17.573  0.00  0.00    +0.234 A 
ATOM     31  O   UNL     1      51.768  12.514  15.294  0.00  0.00    -0.295 OA
ENDROOT
BRANCH   9  10
ATOM     10  O   UNL     1      51.123  16.912  16.994  0.00  0.00    -0.477 OA
ATOM     11  H   UNL     1      51.178  17.353  16.135  0.00  0.00    +0.406 HD
ENDBRANCH   9  10
BRANCH  18  19
ATOM     19  O   UNL     1      46.661  19.909  20.973  0.00  0.00    -0.304 OA
ATOM     20  C   UNL     1      47.572  20.550  20.078  0.00  0.00    +0.239 C 
ENDBRANCH  18  19
BRANCH  21  22
ATOM     22  O   UNL     1      44.030  19.141  21.258  0.00  0.00    -0.299 OA
ATOM     23  C   UNL     1      42.660  18.851  20.974  0.00  0.00    +0.242 C 
ENDBRANCH  21  22
TORSDOF 3
ENDMDL
MODEL 8
REMARK VINA RESULT:      -4.6      4.921      5.901
REMARK  Name = ZINC01684797
REMARK  7 active torsions:
REMARK  status: ('A' for Active; 'I' for Inactive)
REMARK    1  A    between atoms: C1_1  and  C2_2
REMARK    2  A    between atoms: C2_2  and  C23_32
REMARK    3  A    between atoms: C8_8  and  O6_30
REMARK    4  A    between atoms: C15_18  and  O5_28
REMARK    5  A    between atoms: C16_19  and  O4_26
REMARK    6  A    between atoms: O4_26  and  C21_27
REMARK    7  A    between atoms: O5_28  and  C22_29
REMARK                            x       y       z     vdW  Elec       q    Type
REMARK                         _______ _______ _______ _____ _____    ______ ____
ROOT
ATOM      1  C   UNL     1      55.964  12.695  19.428  0.00  0.00    +0.039 C 
ATOM      2  C   UNL     1      56.259  13.514  20.686  0.00  0.00    +0.146 C 
ATOM      3  C   UNL     1      57.495  12.942  21.382  0.00  0.00    +0.087 C 
ATOM      4  C   UNL     1      56.527  14.945  20.296  0.00  0.00    -0.052 C 
ATOM      5  C   UNL     1      55.519  15.811  20.210  0.00  0.00    +0.061 C 
ATOM      6  C   UNL     1      54.157  15.325  20.519  0.00  0.00    -0.181 A 
ATOM      7  C   UNL     1      54.021  14.111  21.212  0.00  0.00    +0.220 A 
ATOM      8  C   UNL     1      52.763  13.619  21.519  0.00  0.00    -0.063 A 
ATOM      9  C   UNL     1      51.630  14.324  21.144  0.00  0.00    +0.243 A 
ATOM     12  C   UNL     1      51.757  15.539  20.452  0.00  0.00    -0.304 A 
ATOM     13  C   UNL     1      50.558  16.291  20.044  0.00  0.00    +0.420 C 
ATOM     14  O   UNL     1      49.450  16.024  20.460  0.00  0.00    -0.420 OA
ATOM     15  C   UNL     1      50.810  17.421  19.067  0.00  0.00    +0.013 C 
ATOM     16  C   UNL     1      49.672  18.400  19.069  0.00  0.00    -0.160 A 
ATOM     17  C   UNL     1      48.368  17.938  19.140  0.00  0.00    +0.044 A 
ATOM     18  C   UNL     1      47.308  18.826  19.110  0.00  0.00    +0.071 A 
ATOM     21  C   UNL     1      47.555  20.191  19.009  0.00  0.00    +0.144 A 
ATOM     24  C   UNL     1      48.857  20.653  18.943  0.00  0.00    -0.058 A 
ATOM     25  C   UNL     1      49.922  19.760  18.976  0.00  0.00    +0.138 A 
ATOM     26  O   UNL     1      51.185  20.262  18.918  0.00  0.00    -0.299 OA
ATOM     27  C   UNL     1      52.275  19.369  18.674  0.00  0.00    +0.294 C 
ATOM     28  C   UNL     1      52.079  18.139  19.555  0.00  0.00    +0.156 C 
ATOM     29  O   UNL     1      53.172  17.231  19.485  0.00  0.00    -0.283 OA
ATOM     30  C   UNL     1      53.030  16.049  20.139  0.00  0.00    +0.234 A 
ATOM     31  O   UNL     1      55.141  13.437  21.571  0.00  0.00    -0.295 OA
ENDROOT
BRANCH   9  10
ATOM     10  O   UNL     1      50.400  13.840  21.447  0.00  0.00    -0.477 OA
ATOM     11  H   UNL     1      50.394  13.215  22.184  0.00  0.00    +0.406 HD
ENDBRANCH   9  10
BRANCH  18  19
ATOM     19  O   UNL     1      46.029  18.366  19.180  0.00  0.00    -0.304 OA
ATOM     20  C   UNL     1      45.824  16.977  18.914  0.00  0.00    +0.239 C 
ENDBRANCH  18  19
BRANCH  21  22
ATOM     22  O   UNL     1      46.517  21.070  18.976  0.00  0.00    -0.299 OA
ATOM     23  C   UNL     1      46.080  21.603  20.228  0.00  0.00    +0.242 C 
ENDBRANCH  21  22
TORSDOF 3
ENDMDL
MODEL 9
REMARK VINA RESULT:      -4.5      4.473      5.844
REMARK  Name = ZINC01684797
REMARK  7 active torsions:
REMARK  status: ('A' for Active; 'I' for Inactive)
REMARK    1  A    between atoms: C1_1  and  C2_2
REMARK    2  A    between atoms: C2_2  and  C23_32
REMARK    3  A    between atoms: C8_8  and  O6_30
REMARK    4  A    between atoms: C15_18  and  O5_28
REMARK    5  A    between atoms: C16_19  and  O4_26
REMARK    6  A    between atoms: O4_26  and  C21_27
REMARK    7  A    between atoms: O5_28  and  C22_29
REMARK                            x       y       z     vdW  Elec       q    Type
REMARK                         _______ _______ _______ _____ _____    ______ ____
ROOT
ATOM      1  C   UNL     1      56.162  15.408  19.522  0.00  0.00    +0.039 C 
ATOM      2  C   UNL     1      55.605  14.841  20.829  0.00  0.00    +0.146 C 
ATOM      3  C   UNL     1      56.530  13.732  21.333  0.00  0.00    +0.087 C 
ATOM      4  C   UNL     1      55.540  15.939  21.859  0.00  0.00    -0.052 C 
ATOM      5  C   UNL     1      54.449  16.697  21.954  0.00  0.00    +0.061 C 
ATOM      6  C   UNL     1      53.323  16.415  21.038  0.00  0.00    -0.181 A 
ATOM      7  C   UNL     1      53.299  15.180  20.368  0.00  0.00    +0.220 A 
ATOM      8  C   UNL     1      52.265  14.877  19.499  0.00  0.00    -0.063 A 
ATOM      9  C   UNL     1      51.245  15.791  19.286  0.00  0.00    +0.243 A 
ATOM     12  C   UNL     1      51.260  17.027  19.952  0.00  0.00    -0.304 A 
ATOM     13  C   UNL     1      50.184  18.007  19.726  0.00  0.00    +0.420 C 
ATOM     14  O   UNL     1      49.156  17.722  19.147  0.00  0.00    -0.420 OA
ATOM     15  C   UNL     1      50.455  19.395  20.267  0.00  0.00    +0.013 C 
ATOM     16  C   UNL     1      49.180  20.173  20.420  0.00  0.00    -0.160 A 
ATOM     17  C   UNL     1      48.199  20.081  19.447  0.00  0.00    +0.044 A 
ATOM     18  C   UNL     1      47.033  20.818  19.557  0.00  0.00    +0.071 A 
ATOM     21  C   UNL     1      46.847  21.654  20.654  0.00  0.00    +0.144 A 
ATOM     24  C   UNL     1      47.824  21.742  21.628  0.00  0.00    -0.058 A 
ATOM     25  C   UNL     1      48.995  20.999  21.518  0.00  0.00    +0.138 A 
ATOM     26  O   UNL     1      49.923  21.112  22.505  0.00  0.00    -0.299 OA
ATOM     27  C   UNL     1      51.234  20.583  22.287  0.00  0.00    +0.294 C 
ATOM     28  C   UNL     1      51.084  19.201  21.657  0.00  0.00    +0.156 C 
ATOM     29  O   UNL     1      52.327  18.527  21.506  0.00  0.00    -0.283 OA
ATOM     30  C   UNL     1      52.305  17.343  20.840  0.00  0.00    +0.234 A 
ATOM     31  O   UNL     1      54.305  14.299  20.592  0.00  0.00    -0.295 OA
ENDROOT
BRANCH   9  10
ATOM     10  O   UNL     1      50.233  15.491  18.435  0.00  0.00    -0.477 OA
ATOM     11  H   UNL     1      50.187  14.556  18.192  0.00  0.00    +0.406 HD
ENDBRANCH   9  10
BRANCH  18  19
ATOM     19  O   UNL     1      46.073  20.724  18.598  0.00  0.00    -0.304 OA
ATOM     20  C   UNL     1      45.627  19.411  18.252  0.00  0.00    +0.239 C 
ENDBRANCH  18  19
BRANCH  21  22
ATOM     22  O   UNL     1      45.704  22.383  20.767  0.00  0.00    -0.299 OA
ATOM     23  C   UNL     1      44.813  22.030  21.827  0.00  0.00    +0.242 C 
ENDBRANCH  21  22
TORSDOF 3
ENDMDL
