MODEL 1
REMARK VINA RESULT:      -5.4      0.000      0.000
REMARK  Name = ZINC00900237
REMARK  2 active torsions:
REMARK  status: ('A' for Active; 'I' for Inactive)
REMARK    1  A    between atoms: C1_1  and  O1_2
REMARK    2  A    between atoms: O1_2  and  C2_3
REMARK                            x       y       z     vdW  Elec       q    Type
REMARK                         _______ _______ _______ _____ _____    ______ ____
ROOT
ATOM      3  C   UNL     1      42.884  20.095  19.873  0.00  0.00    +0.217 A 
ATOM      4  C   UNL     1      41.767  20.506  19.153  0.00  0.00    -0.199 A 
ATOM      5  C   UNL     1      40.588  19.817  18.609  0.00  0.00    -0.028 A 
ATOM      6  C   UNL     1      39.853  20.758  18.006  0.00  0.00    +0.251 A 
ATOM      7  O   UNL     1      40.449  21.959  18.116  0.00  0.00    -0.190 OA
ATOM      8  C   UNL     1      41.609  21.864  18.802  0.00  0.00    +0.315 A 
ATOM      9  N   UNL     1      42.514  22.758  19.151  0.00  0.00    -0.470 NA
ATOM     10  C   UNL     1      43.607  22.424  19.846  0.00  0.00    +0.207 A 
ATOM     11  C   UNL     1      44.550  23.401  20.208  0.00  0.00    +0.059 A 
ATOM     12  C   UNL     1      45.661  23.050  20.918  0.00  0.00    +0.082 A 
ATOM     13  O   UNL     1      46.703  23.803  21.381  0.00  0.00    -0.299 OA
ATOM     14  C   UNL     1      47.343  22.999  22.388  0.00  0.00    +0.441 C 
ATOM     15  O   UNL     1      47.057  21.647  21.988  0.00  0.00    -0.301 OA
ATOM     16  C   UNL     1      45.881  21.713  21.294  0.00  0.00    +0.040 A 
ATOM     17  C   UNL     1      44.984  20.741  20.958  0.00  0.00    +0.076 A 
ATOM     18  C   UNL     1      43.830  21.077  20.231  0.00  0.00    -0.126 A 
ENDROOT
BRANCH   3   2
ATOM      1  C   UNL     1      42.446  18.362  21.437  0.00  0.00    +0.248 C 
ATOM      2  O   UNL     1      43.057  18.797  20.219  0.00  0.00    -0.325 OA
ENDBRANCH   3   2
TORSDOF 1
ENDMDL
MODEL 2
REMARK VINA RESULT:      -5.0      1.418      5.391
REMARK  Name = ZINC00900237
REMARK  2 active torsions:
REMARK  status: ('A' for Active; 'I' for Inactive)
REMARK    1  A    between atoms: C1_1  and  O1_2
REMARK    2  A    between atoms: O1_2  and  C2_3
REMARK                            x       y       z     vdW  Elec       q    Type
REMARK                         _______ _______ _______ _____ _____    ______ ____
ROOT
ATOM      3  C   UNL     1      45.249  20.436  21.383  0.00  0.00    +0.217 A 
ATOM      4  C   UNL     1      46.147  21.450  21.703  0.00  0.00    -0.199 A 
ATOM      5  C   UNL     1      47.404  21.504  22.462  0.00  0.00    -0.028 A 
ATOM      6  C   UNL     1      47.810  22.778  22.421  0.00  0.00    +0.251 A 
ATOM      7  O   UNL     1      46.938  23.523  21.717  0.00  0.00    -0.190 OA
ATOM      8  C   UNL     1      45.915  22.769  21.259  0.00  0.00    +0.315 A 
ATOM      9  N   UNL     1      44.848  23.058  20.538  0.00  0.00    -0.470 NA
ATOM     10  C   UNL     1      43.952  22.126  20.196  0.00  0.00    +0.207 A 
ATOM     11  C   UNL     1      42.829  22.465  19.421  0.00  0.00    +0.059 A 
ATOM     12  C   UNL     1      41.921  21.505  19.078  0.00  0.00    +0.082 A 
ATOM     13  O   UNL     1      40.771  21.584  18.345  0.00  0.00    -0.299 OA
ATOM     14  C   UNL     1      40.462  20.230  17.966  0.00  0.00    +0.441 C 
ATOM     15  O   UNL     1      41.046  19.434  19.014  0.00  0.00    -0.301 OA
ATOM     16  C   UNL     1      42.091  20.172  19.493  0.00  0.00    +0.040 A 
ATOM     17  C   UNL     1      43.170  19.812  20.245  0.00  0.00    +0.076 A 
ATOM     18  C   UNL     1      44.122  20.780  20.610  0.00  0.00    -0.126 A 
ENDROOT
BRANCH   3   2
ATOM      1  C   UNL     1      46.369  18.370  21.043  0.00  0.00    +0.248 C 
ATOM      2  O   UNL     1      45.451  19.163  21.800  0.00  0.00    -0.325 OA
ENDBRANCH   3   2
TORSDOF 1
ENDMDL
MODEL 3
REMARK VINA RESULT:      -5.0      1.818      5.963
REMARK  Name = ZINC00900237
REMARK  2 active torsions:
REMARK  status: ('A' for Active; 'I' for Inactive)
REMARK    1  A    between atoms: C1_1  and  O1_2
REMARK    2  A    between atoms: O1_2  and  C2_3
REMARK                            x       y       z     vdW  Elec       q    Type
REMARK                         _______ _______ _______ _____ _____    ______ ____
ROOT
ATOM      3  C   UNL     1      45.311  22.360  20.848  0.00  0.00    +0.217 A 
ATOM      4  C   UNL     1      46.490  21.659  21.079  0.00  0.00    -0.199 A 
ATOM      5  C   UNL     1      47.734  21.957  21.802  0.00  0.00    -0.028 A 
ATOM      6  C   UNL     1      48.511  20.877  21.667  0.00  0.00    +0.251 A 
ATOM      7  O   UNL     1      47.883  19.938  20.936  0.00  0.00    -0.190 OA
ATOM      8  C   UNL     1      46.658  20.359  20.556  0.00  0.00    +0.315 A 
ATOM      9  N   UNL     1      45.701  19.792  19.845  0.00  0.00    -0.470 NA
ATOM     10  C   UNL     1      44.544  20.415  19.593  0.00  0.00    +0.207 A 
ATOM     11  C   UNL     1      43.543  19.782  18.837  0.00  0.00    +0.059 A 
ATOM     12  C   UNL     1      42.365  20.426  18.586  0.00  0.00    +0.082 A 
ATOM     13  O   UNL     1      41.259  20.028  17.891  0.00  0.00    -0.299 OA
ATOM     14  C   UNL     1      40.204  20.916  18.304  0.00  0.00    +0.441 C 
ATOM     15  O   UNL     1      40.892  22.123  18.678  0.00  0.00    -0.301 OA
ATOM     16  C   UNL     1      42.138  21.725  19.074  0.00  0.00    +0.040 A 
ATOM     17  C   UNL     1      43.091  22.366  19.811  0.00  0.00    +0.076 A 
ATOM     18  C   UNL     1      44.310  21.724  20.086  0.00  0.00    -0.126 A 
ENDROOT
BRANCH   3   2
ATOM      1  C   UNL     1      45.800  24.676  20.663  0.00  0.00    +0.248 C 
ATOM      2  O   UNL     1      45.129  23.610  21.339  0.00  0.00    -0.325 OA
ENDBRANCH   3   2
TORSDOF 1
ENDMDL
MODEL 4
REMARK VINA RESULT:      -4.9      2.695      3.737
REMARK  Name = ZINC00900237
REMARK  2 active torsions:
REMARK  status: ('A' for Active; 'I' for Inactive)
REMARK    1  A    between atoms: C1_1  and  O1_2
REMARK    2  A    between atoms: O1_2  and  C2_3
REMARK                            x       y       z     vdW  Elec       q    Type
REMARK                         _______ _______ _______ _____ _____    ______ ____
ROOT
ATOM      3  C   UNL     1      44.294  21.915  19.529  0.00  0.00    +0.217 A 
ATOM      4  C   UNL     1      43.046  21.450  19.124  0.00  0.00    -0.199 A 
ATOM      5  C   UNL     1      41.690  22.015  19.132  0.00  0.00    -0.028 A 
ATOM      6  C   UNL     1      40.893  21.078  18.608  0.00  0.00    +0.251 A 
ATOM      7  O   UNL     1      41.610  19.988  18.275  0.00  0.00    -0.190 OA
ATOM      8  C   UNL     1      42.917  20.161  18.565  0.00  0.00    +0.315 A 
ATOM      9  N   UNL     1      43.974  19.383  18.417  0.00  0.00    -0.470 NA
ATOM     10  C   UNL     1      45.198  19.777  18.783  0.00  0.00    +0.207 A 
ATOM     11  C   UNL     1      46.304  18.928  18.607  0.00  0.00    +0.059 A 
ATOM     12  C   UNL     1      47.550  19.340  18.984  0.00  0.00    +0.082 A 
ATOM     13  O   UNL     1      48.759  18.709  18.915  0.00  0.00    -0.299 OA
ATOM     14  C   UNL     1      49.745  19.747  19.058  0.00  0.00    +0.441 C 
ATOM     15  O   UNL     1      49.075  20.758  19.832  0.00  0.00    -0.301 OA
ATOM     16  C   UNL     1      47.745  20.610  19.552  0.00  0.00    +0.040 A 
ATOM     17  C   UNL     1      46.692  21.458  19.736  0.00  0.00    +0.076 A 
ATOM     18  C   UNL     1      45.400  21.059  19.354  0.00  0.00    -0.126 A 
ENDROOT
BRANCH   3   2
ATOM      1  C   UNL     1      44.526  24.251  19.162  0.00  0.00    +0.248 C 
ATOM      2  O   UNL     1      44.441  23.149  20.070  0.00  0.00    -0.325 OA
ENDBRANCH   3   2
TORSDOF 1
ENDMDL
MODEL 5
REMARK VINA RESULT:      -4.8      4.828      6.374
REMARK  Name = ZINC00900237
REMARK  2 active torsions:
REMARK  status: ('A' for Active; 'I' for Inactive)
REMARK    1  A    between atoms: C1_1  and  O1_2
REMARK    2  A    between atoms: O1_2  and  C2_3
REMARK                            x       y       z     vdW  Elec       q    Type
REMARK                         _______ _______ _______ _____ _____    ______ ____
ROOT
ATOM      3  C   UNL     1      46.401  16.590  17.869  0.00  0.00    +0.217 A 
ATOM      4  C   UNL     1      46.343  15.263  18.285  0.00  0.00    -0.199 A 
ATOM      5  C   UNL     1      46.933  14.010  17.795  0.00  0.00    -0.028 A 
ATOM      6  C   UNL     1      46.505  13.049  18.621  0.00  0.00    +0.251 A 
ATOM      7  O   UNL     1      45.711  13.572  19.573  0.00  0.00    -0.190 OA
ATOM      8  C   UNL     1      45.581  14.907  19.417  0.00  0.00    +0.315 A 
ATOM      9  N   UNL     1      44.916  15.824  20.096  0.00  0.00    -0.470 NA
ATOM     10  C   UNL     1      44.936  17.115  19.747  0.00  0.00    +0.207 A 
ATOM     11  C   UNL     1      44.223  18.067  20.495  0.00  0.00    +0.059 A 
ATOM     12  C   UNL     1      44.251  19.383  20.130  0.00  0.00    +0.082 A 
ATOM     13  O   UNL     1      43.652  20.477  20.686  0.00  0.00    -0.299 OA
ATOM     14  C   UNL     1      44.354  21.614  20.151  0.00  0.00    +0.441 C 
ATOM     15  O   UNL     1      44.840  21.155  18.877  0.00  0.00    -0.301 OA
ATOM     16  C   UNL     1      44.987  19.803  19.009  0.00  0.00    +0.040 A 
ATOM     17  C   UNL     1      45.690  18.902  18.263  0.00  0.00    +0.076 A 
ATOM     18  C   UNL     1      45.680  17.543  18.619  0.00  0.00    -0.126 A 
ENDROOT
BRANCH   3   2
ATOM      1  C   UNL     1      48.521  17.190  16.984  0.00  0.00    +0.248 C 
ATOM      2  O   UNL     1      47.125  16.955  16.784  0.00  0.00    -0.325 OA
ENDBRANCH   3   2
TORSDOF 1
ENDMDL
MODEL 6
REMARK VINA RESULT:      -4.8      3.676      5.769
REMARK  Name = ZINC00900237
REMARK  2 active torsions:
REMARK  status: ('A' for Active; 'I' for Inactive)
REMARK    1  A    between atoms: C1_1  and  O1_2
REMARK    2  A    between atoms: O1_2  and  C2_3
REMARK                            x       y       z     vdW  Elec       q    Type
REMARK                         _______ _______ _______ _____ _____    ______ ____
ROOT
ATOM      3  C   UNL     1      46.482  18.394  18.402  0.00  0.00    +0.217 A 
ATOM      4  C   UNL     1      47.860  18.542  18.527  0.00  0.00    -0.199 A 
ATOM      5  C   UNL     1      49.012  17.663  18.280  0.00  0.00    -0.028 A 
ATOM      6  C   UNL     1      50.099  18.379  18.589  0.00  0.00    +0.251 A 
ATOM      7  O   UNL     1      49.746  19.609  19.003  0.00  0.00    -0.190 OA
ATOM      8  C   UNL     1      48.404  19.761  18.983  0.00  0.00    +0.315 A 
ATOM      9  N   UNL     1      47.617  20.774  19.296  0.00  0.00    -0.470 NA
ATOM     10  C   UNL     1      46.286  20.692  19.193  0.00  0.00    +0.207 A 
ATOM     11  C   UNL     1      45.475  21.790  19.528  0.00  0.00    +0.059 A 
ATOM     12  C   UNL     1      44.118  21.696  19.419  0.00  0.00    +0.082 A 
ATOM     13  O   UNL     1      43.135  22.609  19.678  0.00  0.00    -0.299 OA
ATOM     14  C   UNL     1      41.963  22.116  19.002  0.00  0.00    +0.441 C 
ATOM     15  O   UNL     1      42.158  20.691  18.963  0.00  0.00    -0.301 OA
ATOM     16  C   UNL     1      43.512  20.508  18.975  0.00  0.00    +0.040 A 
ATOM     17  C   UNL     1      44.272  19.424  18.643  0.00  0.00    +0.076 A 
ATOM     18  C   UNL     1      45.672  19.496  18.743  0.00  0.00    -0.126 A 
ENDROOT
BRANCH   3   2
ATOM      1  C   UNL     1      45.803  16.179  18.926  0.00  0.00    +0.248 C 
ATOM      2  O   UNL     1      45.938  17.232  17.967  0.00  0.00    -0.325 OA
ENDBRANCH   3   2
TORSDOF 1
ENDMDL
MODEL 7
REMARK VINA RESULT:      -4.8      4.099      5.969
REMARK  Name = ZINC00900237
REMARK  2 active torsions:
REMARK  status: ('A' for Active; 'I' for Inactive)
REMARK    1  A    between atoms: C1_1  and  O1_2
REMARK    2  A    between atoms: O1_2  and  C2_3
REMARK                            x       y       z     vdW  Elec       q    Type
REMARK                         _______ _______ _______ _____ _____    ______ ____
ROOT
ATOM      3  C   UNL     1      44.640  18.555  20.544  0.00  0.00    +0.217 A 
ATOM      4  C   UNL     1      44.761  19.869  20.103  0.00  0.00    -0.199 A 
ATOM      5  C   UNL     1      44.356  21.173  20.646  0.00  0.00    -0.028 A 
ATOM      6  C   UNL     1      44.753  22.087  19.753  0.00  0.00    +0.251 A 
ATOM      7  O   UNL     1      45.361  21.490  18.712  0.00  0.00    -0.190 OA
ATOM      8  C   UNL     1      45.394  20.150  18.873  0.00  0.00    +0.315 A 
ATOM      9  N   UNL     1      45.878  19.173  18.128  0.00  0.00    -0.470 NA
ATOM     10  C   UNL     1      45.795  17.892  18.502  0.00  0.00    +0.207 A 
ATOM     11  C   UNL     1      46.326  16.876  17.689  0.00  0.00    +0.059 A 
ATOM     12  C   UNL     1      46.236  15.571  18.079  0.00  0.00    +0.082 A 
ATOM     13  O   UNL     1      46.669  14.424  17.475  0.00  0.00    -0.299 OA
ATOM     14  C   UNL     1      46.677  13.423  18.508  0.00  0.00    +0.441 C 
ATOM     15  O   UNL     1      45.663  13.865  19.429  0.00  0.00    -0.301 OA
ATOM     16  C   UNL     1      45.613  15.224  19.291  0.00  0.00    +0.040 A 
ATOM     17  C   UNL     1      45.088  16.187  20.101  0.00  0.00    +0.076 A 
ATOM     18  C   UNL     1      45.170  17.538  19.724  0.00  0.00    -0.126 A 
ENDROOT
BRANCH   3   2
ATOM      1  C   UNL     1      42.604  18.265  21.733  0.00  0.00    +0.248 C 
ATOM      2  O   UNL     1      44.034  18.263  21.720  0.00  0.00    -0.325 OA
ENDBRANCH   3   2
TORSDOF 1
ENDMDL
MODEL 8
REMARK VINA RESULT:      -4.7      2.521      2.893
REMARK  Name = ZINC00900237
REMARK  2 active torsions:
REMARK  status: ('A' for Active; 'I' for Inactive)
REMARK    1  A    between atoms: C1_1  and  O1_2
REMARK    2  A    between atoms: O1_2  and  C2_3
REMARK                            x       y       z     vdW  Elec       q    Type
REMARK                         _______ _______ _______ _____ _____    ______ ____
ROOT
ATOM      3  C   UNL     1      43.913  18.675  20.270  0.00  0.00    +0.217 A 
ATOM      4  C   UNL     1      42.809  19.447  19.922  0.00  0.00    -0.199 A 
ATOM      5  C   UNL     1      41.357  19.290  20.081  0.00  0.00    -0.028 A 
ATOM      6  C   UNL     1      40.803  20.379  19.536  0.00  0.00    +0.251 A 
ATOM      7  O   UNL     1      41.757  21.197  19.054  0.00  0.00    -0.190 OA
ATOM      8  C   UNL     1      42.987  20.682  19.263  0.00  0.00    +0.315 A 
ATOM      9  N   UNL     1      44.198  21.119  18.970  0.00  0.00    -0.470 NA
ATOM     10  C   UNL     1      45.296  20.423  19.283  0.00  0.00    +0.207 A 
ATOM     11  C   UNL     1      46.572  20.919  18.963  0.00  0.00    +0.059 A 
ATOM     12  C   UNL     1      47.686  20.200  19.288  0.00  0.00    +0.082 A 
ATOM     13  O   UNL     1      49.011  20.466  19.088  0.00  0.00    -0.299 OA
ATOM     14  C   UNL     1      49.719  19.589  19.982  0.00  0.00    +0.441 C 
ATOM     15  O   UNL     1      48.835  18.465  20.140  0.00  0.00    -0.301 OA
ATOM     16  C   UNL     1      47.577  18.960  19.940  0.00  0.00    +0.040 A 
ATOM     17  C   UNL     1      46.353  18.452  20.264  0.00  0.00    +0.076 A 
ATOM     18  C   UNL     1      45.191  19.173  19.944  0.00  0.00    -0.126 A 
ENDROOT
BRANCH   3   2
ATOM      1  C   UNL     1      43.472  17.525  22.301  0.00  0.00    +0.248 C 
ATOM      2  O   UNL     1      43.765  17.485  20.902  0.00  0.00    -0.325 OA
ENDBRANCH   3   2
TORSDOF 1
ENDMDL
MODEL 9
REMARK VINA RESULT:      -4.7      3.802      5.516
REMARK  Name = ZINC00900237
REMARK  2 active torsions:
REMARK  status: ('A' for Active; 'I' for Inactive)
REMARK    1  A    between atoms: C1_1  and  O1_2
REMARK    2  A    between atoms: O1_2  and  C2_3
REMARK                            x       y       z     vdW  Elec       q    Type
REMARK                         _______ _______ _______ _____ _____    ______ ____
ROOT
ATOM      3  C   UNL     1      44.867  20.483  19.105  0.00  0.00    +0.217 A 
ATOM      4  C   UNL     1      45.168  21.556  19.938  0.00  0.00    -0.199 A 
ATOM      5  C   UNL     1      44.382  22.650  20.524  0.00  0.00    -0.028 A 
ATOM      6  C   UNL     1      45.240  23.380  21.246  0.00  0.00    +0.251 A 
ATOM      7  O   UNL     1      46.477  22.856  21.170  0.00  0.00    -0.190 OA
ATOM      8  C   UNL     1      46.489  21.752  20.393  0.00  0.00    +0.315 A 
ATOM      9  N   UNL     1      47.453  20.922  20.038  0.00  0.00    -0.470 NA
ATOM     10  C   UNL     1      47.223  19.871  19.243  0.00  0.00    +0.207 A 
ATOM     11  C   UNL     1      48.270  19.003  18.888  0.00  0.00    +0.059 A 
ATOM     12  C   UNL     1      48.024  17.933  18.076  0.00  0.00    +0.082 A 
ATOM     13  O   UNL     1      48.859  16.962  17.599  0.00  0.00    -0.299 OA
ATOM     14  C   UNL     1      47.999  15.896  17.158  0.00  0.00    +0.441 C 
ATOM     15  O   UNL     1      46.773  16.563  16.805  0.00  0.00    -0.301 OA
ATOM     16  C   UNL     1      46.731  17.685  17.584  0.00  0.00    +0.040 A 
ATOM     17  C   UNL     1      45.695  18.509  17.911  0.00  0.00    +0.076 A 
ATOM     18  C   UNL     1      45.920  19.616  18.747  0.00  0.00    -0.126 A 
ENDROOT
BRANCH   3   2
ATOM      1  C   UNL     1      42.693  19.634  19.548  0.00  0.00    +0.248 C 
ATOM      2  O   UNL     1      43.606  20.277  18.654  0.00  0.00    -0.325 OA
ENDBRANCH   3   2
TORSDOF 1
ENDMDL
