MODEL 1
REMARK VINA RESULT:      -5.6      0.000      0.000
REMARK  Name = ZINC03873071
REMARK  4 active torsions:
REMARK  status: ('A' for Active; 'I' for Inactive)
REMARK    1  A    between atoms: C1_1  and  C2_2
REMARK    2  A    between atoms: C2_2  and  C15_18
REMARK    3  A    between atoms: C3_3  and  C4_4
REMARK    4  A    between atoms: C4_4  and  C5_5
REMARK                            x       y       z     vdW  Elec       q    Type
REMARK                         _______ _______ _______ _____ _____    ______ ____
ROOT
ATOM      6  C   UNL     1      45.532  20.810  20.421  0.00  0.00    -0.429 C 
ATOM      7  C   UNL     1      45.150  19.552  20.722  0.00  0.00    +0.249 C 
ATOM      8  O   UNL     1      46.041  18.696  21.276  0.00  0.00    -0.641 OA
ATOM      9  C   UNL     1      43.765  19.097  20.455  0.00  0.00    +0.390 C 
ATOM     10  C   UNL     1      42.793  20.032  19.850  0.00  0.00    -0.128 A 
ATOM     11  C   UNL     1      41.487  19.633  19.588  0.00  0.00    +0.055 A 
ATOM     12  C   UNL     1      40.594  20.529  19.022  0.00  0.00    +0.002 A 
ATOM     13  C   UNL     1      40.994  21.815  18.716  0.00  0.00    +0.017 A 
ATOM     14  C   UNL     1      42.292  22.228  18.971  0.00  0.00    +0.046 A 
ATOM     15  C   UNL     1      43.199  21.343  19.539  0.00  0.00    -0.091 A 
ATOM     16  O   UNL     1      43.431  17.962  20.729  0.00  0.00    -0.435 OA
ATOM     17  C   UNL     1      44.590  21.762  19.826  0.00  0.00    +0.425 C 
ATOM     18  O   UNL     1      44.949  22.893  19.566  0.00  0.00    -0.511 OA
ENDROOT
BRANCH   6   5
ATOM      5  C   UNL     1      46.947  21.245  20.704  0.00  0.00    +0.130 C 
BRANCH   5   4
ATOM      1  C   UNL     1      49.702  20.765  21.063  0.00  0.00    +0.065 C 
ATOM      2  C   UNL     1      49.109  20.761  19.678  0.00  0.00    -0.180 C 
ATOM      3  C   UNL     1      49.998  20.567  18.478  0.00  0.00    +0.055 C 
ATOM      4  C   UNL     1      47.818  20.926  19.518  0.00  0.00    -0.018 C 
ENDBRANCH   5   4
ENDBRANCH   6   5
TORSDOF 2
ENDMDL
MODEL 2
REMARK VINA RESULT:      -5.6      3.089      6.117
REMARK  Name = ZINC03873071
REMARK  4 active torsions:
REMARK  status: ('A' for Active; 'I' for Inactive)
REMARK    1  A    between atoms: C1_1  and  C2_2
REMARK    2  A    between atoms: C2_2  and  C15_18
REMARK    3  A    between atoms: C3_3  and  C4_4
REMARK    4  A    between atoms: C4_4  and  C5_5
REMARK                            x       y       z     vdW  Elec       q    Type
REMARK                         _______ _______ _______ _____ _____    ______ ____
ROOT
ATOM      6  C   UNL     1      43.769  18.880  20.226  0.00  0.00    -0.429 C 
ATOM      7  C   UNL     1      44.594  18.524  19.221  0.00  0.00    +0.249 C 
ATOM      8  O   UNL     1      44.795  19.373  18.187  0.00  0.00    -0.641 OA
ATOM      9  C   UNL     1      45.284  17.212  19.237  0.00  0.00    +0.390 C 
ATOM     10  C   UNL     1      45.063  16.284  20.367  0.00  0.00    -0.128 A 
ATOM     11  C   UNL     1      45.697  15.048  20.408  0.00  0.00    +0.055 A 
ATOM     12  C   UNL     1      45.475  14.196  21.479  0.00  0.00    +0.002 A 
ATOM     13  C   UNL     1      44.628  14.569  22.505  0.00  0.00    +0.017 A 
ATOM     14  C   UNL     1      43.989  15.799  22.477  0.00  0.00    +0.046 A 
ATOM     15  C   UNL     1      44.201  16.664  21.412  0.00  0.00    -0.091 A 
ATOM     16  O   UNL     1      46.024  16.900  18.326  0.00  0.00    -0.435 OA
ATOM     17  C   UNL     1      43.535  17.985  21.363  0.00  0.00    +0.425 C 
ATOM     18  O   UNL     1      42.792  18.324  22.263  0.00  0.00    -0.511 OA
ENDROOT
BRANCH   6   5
ATOM      5  C   UNL     1      43.081  20.221  20.183  0.00  0.00    +0.130 C 
BRANCH   5   4
ATOM      1  C   UNL     1      41.957  22.438  18.854  0.00  0.00    +0.065 C 
ATOM      2  C   UNL     1      41.209  21.131  18.907  0.00  0.00    -0.180 C 
ATOM      3  C   UNL     1      39.831  21.026  18.307  0.00  0.00    +0.055 C 
ATOM      4  C   UNL     1      41.759  20.085  19.474  0.00  0.00    -0.018 C 
ENDBRANCH   5   4
ENDBRANCH   6   5
TORSDOF 2
ENDMDL
MODEL 3
REMARK VINA RESULT:      -5.5      1.128      2.866
REMARK  Name = ZINC03873071
REMARK  4 active torsions:
REMARK  status: ('A' for Active; 'I' for Inactive)
REMARK    1  A    between atoms: C1_1  and  C2_2
REMARK    2  A    between atoms: C2_2  and  C15_18
REMARK    3  A    between atoms: C3_3  and  C4_4
REMARK    4  A    between atoms: C4_4  and  C5_5
REMARK                            x       y       z     vdW  Elec       q    Type
REMARK                         _______ _______ _______ _____ _____    ______ ____
ROOT
ATOM      6  C   UNL     1      44.877  21.709  20.324  0.00  0.00    -0.429 C 
ATOM      7  C   UNL     1      44.431  22.918  19.927  0.00  0.00    +0.249 C 
ATOM      8  O   UNL     1      45.213  24.010  20.099  0.00  0.00    -0.641 OA
ATOM      9  C   UNL     1      43.095  23.065  19.303  0.00  0.00    +0.390 C 
ATOM     10  C   UNL     1      42.241  21.873  19.116  0.00  0.00    -0.128 A 
ATOM     11  C   UNL     1      40.983  21.980  18.534  0.00  0.00    +0.055 A 
ATOM     12  C   UNL     1      40.203  20.847  18.367  0.00  0.00    +0.002 A 
ATOM     13  C   UNL     1      40.667  19.612  18.777  0.00  0.00    +0.017 A 
ATOM     14  C   UNL     1      41.919  19.489  19.359  0.00  0.00    +0.046 A 
ATOM     15  C   UNL     1      42.714  20.614  19.532  0.00  0.00    -0.091 A 
ATOM     16  O   UNL     1      42.702  24.159  18.950  0.00  0.00    -0.435 OA
ATOM     17  C   UNL     1      44.057  20.508  20.146  0.00  0.00    +0.425 C 
ATOM     18  O   UNL     1      44.476  19.425  20.504  0.00  0.00    -0.511 OA
ENDROOT
BRANCH   6   5
ATOM      5  C   UNL     1      46.241  21.590  20.955  0.00  0.00    +0.130 C 
BRANCH   5   4
ATOM      1  C   UNL     1      48.896  21.004  21.697  0.00  0.00    +0.065 C 
ATOM      2  C   UNL     1      48.494  20.976  20.245  0.00  0.00    -0.180 C 
ATOM      3  C   UNL     1      49.526  20.698  19.183  0.00  0.00    +0.055 C 
ATOM      4  C   UNL     1      47.247  21.190  19.907  0.00  0.00    -0.018 C 
ENDBRANCH   5   4
ENDBRANCH   6   5
TORSDOF 2
ENDMDL
MODEL 4
REMARK VINA RESULT:      -5.4      3.037      5.781
REMARK  Name = ZINC03873071
REMARK  4 active torsions:
REMARK  status: ('A' for Active; 'I' for Inactive)
REMARK    1  A    between atoms: C1_1  and  C2_2
REMARK    2  A    between atoms: C2_2  and  C15_18
REMARK    3  A    between atoms: C3_3  and  C4_4
REMARK    4  A    between atoms: C4_4  and  C5_5
REMARK                            x       y       z     vdW  Elec       q    Type
REMARK                         _______ _______ _______ _____ _____    ______ ____
ROOT
ATOM      6  C   UNL     1      43.957  18.954  20.191  0.00  0.00    -0.429 C 
ATOM      7  C   UNL     1      43.552  18.282  21.288  0.00  0.00    +0.249 C 
ATOM      8  O   UNL     1      42.754  18.896  22.193  0.00  0.00    -0.641 OA
ATOM      9  C   UNL     1      43.972  16.879  21.514  0.00  0.00    +0.390 C 
ATOM     10  C   UNL     1      44.844  16.209  20.526  0.00  0.00    -0.128 A 
ATOM     11  C   UNL     1      45.253  14.893  20.711  0.00  0.00    +0.055 A 
ATOM     12  C   UNL     1      46.069  14.287  19.769  0.00  0.00    +0.002 A 
ATOM     13  C   UNL     1      46.479  14.983  18.648  0.00  0.00    +0.017 A 
ATOM     14  C   UNL     1      46.080  16.295  18.449  0.00  0.00    +0.046 A 
ATOM     15  C   UNL     1      45.261  16.916  19.383  0.00  0.00    -0.091 A 
ATOM     16  O   UNL     1      43.603  16.283  22.505  0.00  0.00    -0.435 OA
ATOM     17  C   UNL     1      44.816  18.315  19.190  0.00  0.00    +0.425 C 
ATOM     18  O   UNL     1      45.167  18.934  18.204  0.00  0.00    -0.511 OA
ENDROOT
BRANCH   6   5
ATOM      5  C   UNL     1      43.514  20.380  19.988  0.00  0.00    +0.130 C 
BRANCH   5   4
ATOM      1  C   UNL     1      42.392  22.824  19.141  0.00  0.00    +0.065 C 
ATOM      2  C   UNL     1      41.624  21.540  18.966  0.00  0.00    -0.180 C 
ATOM      3  C   UNL     1      40.229  21.567  18.398  0.00  0.00    +0.055 C 
ATOM      4  C   UNL     1      42.171  20.398  19.305  0.00  0.00    -0.018 C 
ENDBRANCH   5   4
ENDBRANCH   6   5
TORSDOF 2
ENDMDL
MODEL 5
REMARK VINA RESULT:      -5.3      2.547      3.758
REMARK  Name = ZINC03873071
REMARK  4 active torsions:
REMARK  status: ('A' for Active; 'I' for Inactive)
REMARK    1  A    between atoms: C1_1  and  C2_2
REMARK    2  A    between atoms: C2_2  and  C15_18
REMARK    3  A    between atoms: C3_3  and  C4_4
REMARK    4  A    between atoms: C4_4  and  C5_5
REMARK                            x       y       z     vdW  Elec       q    Type
REMARK                         _______ _______ _______ _____ _____    ______ ____
ROOT
ATOM      6  C   UNL     1      48.684  18.985  18.721  0.00  0.00    -0.429 C 
ATOM      7  C   UNL     1      47.970  17.980  18.175  0.00  0.00    +0.249 C 
ATOM      8  O   UNL     1      48.610  16.883  17.705  0.00  0.00    -0.641 OA
ATOM      9  C   UNL     1      46.494  18.062  18.084  0.00  0.00    +0.390 C 
ATOM     10  C   UNL     1      45.795  19.260  18.597  0.00  0.00    -0.128 A 
ATOM     11  C   UNL     1      44.411  19.364  18.525  0.00  0.00    +0.055 A 
ATOM     12  C   UNL     1      43.780  20.497  19.014  0.00  0.00    +0.002 A 
ATOM     13  C   UNL     1      44.518  21.523  19.572  0.00  0.00    +0.017 A 
ATOM     14  C   UNL     1      45.899  21.433  19.651  0.00  0.00    +0.046 A 
ATOM     15  C   UNL     1      46.547  20.305  19.166  0.00  0.00    -0.091 A 
ATOM     16  O   UNL     1      45.860  17.152  17.590  0.00  0.00    -0.435 OA
ATOM     17  C   UNL     1      48.020  20.183  19.244  0.00  0.00    +0.425 C 
ATOM     18  O   UNL     1      48.678  21.078  19.738  0.00  0.00    -0.511 OA
ENDROOT
BRANCH   6   5
ATOM      5  C   UNL     1      50.185  18.874  18.800  0.00  0.00    +0.130 C 
BRANCH   5   4
ATOM      1  C   UNL     1      51.876  21.130  18.803  0.00  0.00    +0.065 C 
ATOM      2  C   UNL     1      51.532  20.446  17.505  0.00  0.00    -0.180 C 
ATOM      3  C   UNL     1      52.038  21.005  16.201  0.00  0.00    +0.055 C 
ATOM      4  C   UNL     1      50.794  19.363  17.512  0.00  0.00    -0.018 C 
ENDBRANCH   5   4
ENDBRANCH   6   5
TORSDOF 2
ENDMDL
MODEL 6
REMARK VINA RESULT:      -5.3      1.620      6.261
REMARK  Name = ZINC03873071
REMARK  4 active torsions:
REMARK  status: ('A' for Active; 'I' for Inactive)
REMARK    1  A    between atoms: C1_1  and  C2_2
REMARK    2  A    between atoms: C2_2  and  C15_18
REMARK    3  A    between atoms: C3_3  and  C4_4
REMARK    4  A    between atoms: C4_4  and  C5_5
REMARK                            x       y       z     vdW  Elec       q    Type
REMARK                         _______ _______ _______ _____ _____    ______ ____
ROOT
ATOM      6  C   UNL     1      44.824  20.311  19.105  0.00  0.00    -0.429 C 
ATOM      7  C   UNL     1      45.108  21.355  19.911  0.00  0.00    +0.249 C 
ATOM      8  O   UNL     1      44.111  22.172  20.324  0.00  0.00    -0.641 OA
ATOM      9  C   UNL     1      46.499  21.616  20.350  0.00  0.00    +0.390 C 
ATOM     10  C   UNL     1      47.587  20.723  19.899  0.00  0.00    -0.128 A 
ATOM     11  C   UNL     1      48.901  20.944  20.295  0.00  0.00    +0.055 A 
ATOM     12  C   UNL     1      49.904  20.092  19.860  0.00  0.00    +0.002 A 
ATOM     13  C   UNL     1      49.605  19.025  19.034  0.00  0.00    +0.017 A 
ATOM     14  C   UNL     1      48.300  18.792  18.631  0.00  0.00    +0.046 A 
ATOM     15  C   UNL     1      47.284  19.636  19.059  0.00  0.00    -0.091 A 
ATOM     16  O   UNL     1      46.744  22.559  21.075  0.00  0.00    -0.435 OA
ATOM     17  C   UNL     1      45.881  19.405  18.646  0.00  0.00    +0.425 C 
ATOM     18  O   UNL     1      45.607  18.466  17.924  0.00  0.00    -0.511 OA
ENDROOT
BRANCH   6   5
ATOM      5  C   UNL     1      43.400  20.070  18.675  0.00  0.00    +0.130 C 
BRANCH   5   4
ATOM      1  C   UNL     1      40.703  20.622  19.281  0.00  0.00    +0.065 C 
ATOM      2  C   UNL     1      41.449  19.564  20.052  0.00  0.00    -0.180 C 
ATOM      3  C   UNL     1      40.775  18.847  21.193  0.00  0.00    +0.055 C 
ATOM      4  C   UNL     1      42.684  19.268  19.730  0.00  0.00    -0.018 C 
ENDBRANCH   5   4
ENDBRANCH   6   5
TORSDOF 2
ENDMDL
MODEL 7
REMARK VINA RESULT:      -5.2      4.093      6.616
REMARK  Name = ZINC03873071
REMARK  4 active torsions:
REMARK  status: ('A' for Active; 'I' for Inactive)
REMARK    1  A    between atoms: C1_1  and  C2_2
REMARK    2  A    between atoms: C2_2  and  C15_18
REMARK    3  A    between atoms: C3_3  and  C4_4
REMARK    4  A    between atoms: C4_4  and  C5_5
REMARK                            x       y       z     vdW  Elec       q    Type
REMARK                         _______ _______ _______ _____ _____    ______ ____
ROOT
ATOM      6  C   UNL     1      45.150  17.700  19.511  0.00  0.00    -0.429 C 
ATOM      7  C   UNL     1      45.777  18.036  18.365  0.00  0.00    +0.249 C 
ATOM      8  O   UNL     1      45.836  19.336  17.992  0.00  0.00    -0.641 OA
ATOM      9  C   UNL     1      46.401  16.999  17.511  0.00  0.00    +0.390 C 
ATOM     10  C   UNL     1      46.336  15.580  17.919  0.00  0.00    -0.128 A 
ATOM     11  C   UNL     1      46.913  14.586  17.137  0.00  0.00    +0.055 A 
ATOM     12  C   UNL     1      46.840  13.262  17.542  0.00  0.00    +0.002 A 
ATOM     13  C   UNL     1      46.196  12.926  18.717  0.00  0.00    +0.017 A 
ATOM     14  C   UNL     1      45.616  13.905  19.507  0.00  0.00    +0.046 A 
ATOM     15  C   UNL     1      45.681  15.236  19.116  0.00  0.00    -0.091 A 
ATOM     16  O   UNL     1      46.963  17.313  16.480  0.00  0.00    -0.435 OA
ATOM     17  C   UNL     1      45.074  16.302  19.945  0.00  0.00    +0.425 C 
ATOM     18  O   UNL     1      44.510  16.016  20.983  0.00  0.00    -0.511 OA
ENDROOT
BRANCH   6   5
ATOM      5  C   UNL     1      44.524  18.776  20.360  0.00  0.00    +0.130 C 
BRANCH   5   4
ATOM      1  C   UNL     1      43.433  21.252  19.569  0.00  0.00    +0.065 C 
ATOM      2  C   UNL     1      42.540  20.048  19.722  0.00  0.00    -0.180 C 
ATOM      3  C   UNL     1      41.053  20.181  19.518  0.00  0.00    +0.055 C 
ATOM      4  C   UNL     1      43.057  18.885  20.032  0.00  0.00    -0.018 C 
ENDBRANCH   5   4
ENDBRANCH   6   5
TORSDOF 2
ENDMDL
MODEL 8
REMARK VINA RESULT:      -5.2     20.638     22.220
REMARK  Name = ZINC03873071
REMARK  4 active torsions:
REMARK  status: ('A' for Active; 'I' for Inactive)
REMARK    1  A    between atoms: C1_1  and  C2_2
REMARK    2  A    between atoms: C2_2  and  C15_18
REMARK    3  A    between atoms: C3_3  and  C4_4
REMARK    4  A    between atoms: C4_4  and  C5_5
REMARK                            x       y       z     vdW  Elec       q    Type
REMARK                         _______ _______ _______ _____ _____    ______ ____
ROOT
ATOM      6  C   UNL     1      56.057  32.806   4.021  0.00  0.00    -0.429 C 
ATOM      7  C   UNL     1      55.226  32.215   3.139  0.00  0.00    +0.249 C 
ATOM      8  O   UNL     1      55.734  31.621   2.034  0.00  0.00    -0.641 OA
ATOM      9  C   UNL     1      53.761  32.208   3.367  0.00  0.00    +0.390 C 
ATOM     10  C   UNL     1      53.207  32.857   4.574  0.00  0.00    -0.128 A 
ATOM     11  C   UNL     1      51.838  32.865   4.814  0.00  0.00    +0.055 A 
ATOM     12  C   UNL     1      51.342  33.479   5.954  0.00  0.00    +0.002 A 
ATOM     13  C   UNL     1      52.201  34.083   6.852  0.00  0.00    +0.017 A 
ATOM     14  C   UNL     1      53.569  34.082   6.627  0.00  0.00    +0.046 A 
ATOM     15  C   UNL     1      54.081  33.471   5.490  0.00  0.00    -0.091 A 
ATOM     16  O   UNL     1      53.021  31.674   2.567  0.00  0.00    -0.435 OA
ATOM     17  C   UNL     1      55.538  33.452   5.230  0.00  0.00    +0.425 C 
ATOM     18  O   UNL     1      56.303  33.976   6.017  0.00  0.00    -0.511 OA
ENDROOT
BRANCH   6   5
ATOM      5  C   UNL     1      57.542  32.798   3.763  0.00  0.00    +0.130 C 
BRANCH   5   4
ATOM      1  C   UNL     1      59.020  30.846   2.364  0.00  0.00    +0.065 C 
ATOM      2  C   UNL     1      58.813  30.715   3.851  0.00  0.00    -0.180 C 
ATOM      3  C   UNL     1      59.338  29.507   4.582  0.00  0.00    +0.055 C 
ATOM      4  C   UNL     1      58.176  31.653   4.509  0.00  0.00    -0.018 C 
ENDBRANCH   5   4
ENDBRANCH   6   5
TORSDOF 2
ENDMDL
MODEL 9
REMARK VINA RESULT:      -5.0      1.617      5.855
REMARK  Name = ZINC03873071
REMARK  4 active torsions:
REMARK  status: ('A' for Active; 'I' for Inactive)
REMARK    1  A    between atoms: C1_1  and  C2_2
REMARK    2  A    between atoms: C2_2  and  C15_18
REMARK    3  A    between atoms: C3_3  and  C4_4
REMARK    4  A    between atoms: C4_4  and  C5_5
REMARK                            x       y       z     vdW  Elec       q    Type
REMARK                         _______ _______ _______ _____ _____    ______ ____
ROOT
ATOM      6  C   UNL     1      45.276  19.569  20.061  0.00  0.00    -0.429 C 
ATOM      7  C   UNL     1      45.414  18.268  19.733  0.00  0.00    +0.249 C 
ATOM      8  O   UNL     1      44.375  17.419  19.913  0.00  0.00    -0.641 OA
ATOM      9  C   UNL     1      46.690  17.759  19.179  0.00  0.00    +0.390 C 
ATOM     10  C   UNL     1      47.824  18.687  18.984  0.00  0.00    -0.128 A 
ATOM     11  C   UNL     1      49.033  18.237  18.465  0.00  0.00    +0.055 A 
ATOM     12  C   UNL     1      50.081  19.127  18.290  0.00  0.00    +0.002 A 
ATOM     13  C   UNL     1      49.931  20.458  18.629  0.00  0.00    +0.017 A 
ATOM     14  C   UNL     1      48.732  20.921  19.147  0.00  0.00    +0.046 A 
ATOM     15  C   UNL     1      47.672  20.043  19.328  0.00  0.00    -0.091 A 
ATOM     16  O   UNL     1      46.804  16.585  18.888  0.00  0.00    -0.435 OA
ATOM     17  C   UNL     1      46.380  20.515  19.874  0.00  0.00    +0.425 C 
ATOM     18  O   UNL     1      46.236  21.685  20.170  0.00  0.00    -0.511 OA
ENDROOT
BRANCH   6   5
ATOM      5  C   UNL     1      43.966  20.059  20.624  0.00  0.00    +0.130 C 
BRANCH   5   4
ATOM      1  C   UNL     1      41.298  19.151  20.576  0.00  0.00    +0.065 C 
ATOM      2  C   UNL     1      41.830  19.990  19.443  0.00  0.00    -0.180 C 
ATOM      3  C   UNL     1      40.958  20.289  18.251  0.00  0.00    +0.055 C 
ATOM      4  C   UNL     1      43.052  20.460  19.495  0.00  0.00    -0.018 C 
ENDBRANCH   5   4
ENDBRANCH   6   5
TORSDOF 2
ENDMDL
