MODEL 1
REMARK VINA RESULT:      -7.4      0.000      0.000
REMARK  Name = ZINC05922776
REMARK  9 active torsions:
REMARK  status: ('A' for Active; 'I' for Inactive)
REMARK    1  A    between atoms: C1_1  and  C2_2
REMARK    2  A    between atoms: C4_4  and  O8_31
REMARK    3  A    between atoms: C7_7  and  C8_8
REMARK    4  A    between atoms: C9_9  and  O4_19
REMARK    5  A    between atoms: C11_11  and  O3_18
REMARK    6  A    between atoms: C12_12  and  C14_15
REMARK    7  A    between atoms: C13_13  and  O1_14
REMARK    8  A    between atoms: C14_15  and  C15_17
REMARK    9  A    between atoms: C21_26  and  O7_30
REMARK                            x       y       z     vdW  Elec       q    Type
REMARK                         _______ _______ _______ _____ _____    ______ ____
ROOT
ATOM      1  C   UNL     1      44.103  17.584  20.365  0.00  0.00    +0.111 C 
ATOM      2  C   UNL     1      45.476  17.586  19.742  0.00  0.00    -0.040 A 
ATOM      3  C   UNL     1      45.958  16.443  19.148  0.00  0.00    +0.020 A 
ATOM      4  C   UNL     1      47.226  16.426  18.568  0.00  0.00    +0.173 A 
ATOM      7  C   UNL     1      48.020  17.575  18.587  0.00  0.00    -0.154 A 
ATOM      8  C   UNL     1      47.531  18.751  19.189  0.00  0.00    -0.074 A 
ATOM      9  C   UNL     1      48.360  19.965  19.219  0.00  0.00    +0.431 C 
ATOM     10  C   UNL     1      49.704  19.954  18.607  0.00  0.00    -0.102 A 
ATOM     11  C   UNL     1      50.494  21.099  18.625  0.00  0.00    +0.068 A 
ATOM     12  C   UNL     1      51.752  21.083  18.047  0.00  0.00    +0.063 A 
ATOM     13  C   UNL     1      52.236  19.936  17.451  0.00  0.00    +0.017 A 
ATOM     14  C   UNL     1      51.464  18.779  17.421  0.00  0.00    +0.162 A 
ATOM     17  C   UNL     1      50.190  18.781  17.999  0.00  0.00    -0.152 A 
ATOM     18  O   UNL     1      47.939  20.978  19.744  0.00  0.00    -0.406 OA
ATOM     19  C   UNL     1      49.360  17.563  17.975  0.00  0.00    +0.431 C 
ATOM     20  O   UNL     1      49.782  16.549  17.451  0.00  0.00    -0.401 OA
ATOM     21  C   UNL     1      46.254  18.750  19.774  0.00  0.00    +0.004 A 
ENDROOT
BRANCH  21  22
ATOM     22  C   UNL     1      45.730  19.974  20.414  0.00  0.00    -0.095 A 
ATOM     23  C   UNL     1      45.966  20.210  21.778  0.00  0.00    +0.176 A 
ATOM     26  C   UNL     1      45.476  21.357  22.383  0.00  0.00    -0.028 A 
ATOM     27  C   UNL     1      44.752  22.281  21.650  0.00  0.00    +0.176 A 
ATOM     30  C   UNL     1      44.502  22.057  20.282  0.00  0.00    -0.215 A 
ATOM     34  C   UNL     1      45.000  20.899  19.663  0.00  0.00    +0.192 A 
BRANCH  30  31
ATOM     31  C   UNL     1      43.732  23.030  19.508  0.00  0.00    +0.416 C 
ATOM     32  C   UNL     1      44.396  24.282  18.997  0.00  0.00    +0.080 C 
ATOM     33  O   UNL     1      42.557  22.829  19.279  0.00  0.00    -0.439 OA
ENDBRANCH  30  31
BRANCH  23  24
ATOM     24  O   UNL     1      46.673  19.312  22.505  0.00  0.00    -0.484 OA
ATOM     25  H   UNL     1      46.550  18.394  22.226  0.00  0.00    +0.396 HD
ENDBRANCH  23  24
BRANCH  27  28
ATOM     28  O   UNL     1      44.278  23.398  22.251  0.00  0.00    -0.491 OA
ATOM     29  H   UNL     1      43.341  23.569  22.082  0.00  0.00    +0.403 HD
ENDBRANCH  27  28
BRANCH  34  35
ATOM     35  O   UNL     1      44.771  20.678  18.346  0.00  0.00    -0.480 OA
ATOM     36  H   UNL     1      45.479  20.990  17.766  0.00  0.00    +0.394 HD
ENDBRANCH  34  35
ENDBRANCH  21  22
BRANCH   4   5
ATOM      5  O   UNL     1      47.689  15.292  17.985  0.00  0.00    -0.474 OA
ATOM      6  H   UNL     1      48.374  15.445  17.319  0.00  0.00    +0.400 HD
ENDBRANCH   4   5
BRANCH  14  15
ATOM     15  O   UNL     1      51.943  17.655  16.833  0.00  0.00    -0.475 OA
ATOM     16  H   UNL     1      51.260  17.095  16.438  0.00  0.00    +0.399 HD
ENDBRANCH  14  15
TORSDOF 7
ENDMDL
MODEL 2
REMARK VINA RESULT:      -6.8      1.095      1.267
REMARK  Name = ZINC05922776
REMARK  9 active torsions:
REMARK  status: ('A' for Active; 'I' for Inactive)
REMARK    1  A    between atoms: C1_1  and  C2_2
REMARK    2  A    between atoms: C4_4  and  O8_31
REMARK    3  A    between atoms: C7_7  and  C8_8
REMARK    4  A    between atoms: C9_9  and  O4_19
REMARK    5  A    between atoms: C11_11  and  O3_18
REMARK    6  A    between atoms: C12_12  and  C14_15
REMARK    7  A    between atoms: C13_13  and  O1_14
REMARK    8  A    between atoms: C14_15  and  C15_17
REMARK    9  A    between atoms: C21_26  and  O7_30
REMARK                            x       y       z     vdW  Elec       q    Type
REMARK                         _______ _______ _______ _____ _____    ______ ____
ROOT
ATOM      1  C   UNL     1      44.861  16.174  20.304  0.00  0.00    +0.111 C 
ATOM      2  C   UNL     1      46.159  16.459  19.591  0.00  0.00    -0.040 A 
ATOM      3  C   UNL     1      46.797  15.450  18.908  0.00  0.00    +0.020 A 
ATOM      4  C   UNL     1      47.999  15.694  18.244  0.00  0.00    +0.173 A 
ATOM      7  C   UNL     1      48.565  16.971  18.268  0.00  0.00    -0.154 A 
ATOM      8  C   UNL     1      47.914  18.010  18.962  0.00  0.00    -0.074 A 
ATOM      9  C   UNL     1      48.504  19.356  18.998  0.00  0.00    +0.431 C 
ATOM     10  C   UNL     1      49.777  19.621  18.296  0.00  0.00    -0.102 A 
ATOM     11  C   UNL     1      50.340  20.893  18.320  0.00  0.00    +0.068 A 
ATOM     12  C   UNL     1      51.532  21.136  17.659  0.00  0.00    +0.063 A 
ATOM     13  C   UNL     1      52.173  20.124  16.973  0.00  0.00    +0.017 A 
ATOM     14  C   UNL     1      51.629  18.844  16.936  0.00  0.00    +0.162 A 
ATOM     17  C   UNL     1      50.424  18.584  17.598  0.00  0.00    -0.152 A 
ATOM     18  O   UNL     1      47.944  20.251  19.601  0.00  0.00    -0.406 OA
ATOM     19  C   UNL     1      49.835  17.234  17.568  0.00  0.00    +0.431 C 
ATOM     20  O   UNL     1      50.396  16.338  16.965  0.00  0.00    -0.401 OA
ATOM     21  C   UNL     1      46.708  17.746  19.630  0.00  0.00    +0.004 A 
ENDROOT
BRANCH  21  22
ATOM     22  C   UNL     1      46.016  18.825  20.365  0.00  0.00    -0.095 A 
ATOM     23  C   UNL     1      46.239  18.991  21.742  0.00  0.00    +0.176 A 
ATOM     26  C   UNL     1      45.592  20.002  22.436  0.00  0.00    -0.028 A 
ATOM     27  C   UNL     1      44.723  20.856  21.782  0.00  0.00    +0.176 A 
ATOM     30  C   UNL     1      44.484  20.700  20.402  0.00  0.00    -0.215 A 
ATOM     34  C   UNL     1      45.141  19.681  19.693  0.00  0.00    +0.192 A 
BRANCH  30  31
ATOM     31  C   UNL     1      43.561  21.599  19.711  0.00  0.00    +0.416 C 
ATOM     32  C   UNL     1      42.265  21.067  19.158  0.00  0.00    +0.080 C 
ATOM     33  O   UNL     1      43.841  22.773  19.582  0.00  0.00    -0.439 OA
ENDBRANCH  30  31
BRANCH  23  24
ATOM     24  O   UNL     1      47.087  18.160  22.393  0.00  0.00    -0.484 OA
ATOM     25  H   UNL     1      47.918  18.575  22.661  0.00  0.00    +0.396 HD
ENDBRANCH  23  24
BRANCH  27  28
ATOM     28  O   UNL     1      44.095  21.840  22.470  0.00  0.00    -0.491 OA
ATOM     29  H   UNL     1      44.253  21.816  23.424  0.00  0.00    +0.403 HD
ENDBRANCH  27  28
BRANCH  34  35
ATOM     35  O   UNL     1      44.923  19.526  18.364  0.00  0.00    -0.480 OA
ATOM     36  H   UNL     1      45.674  19.151  17.884  0.00  0.00    +0.394 HD
ENDBRANCH  34  35
ENDBRANCH  21  22
BRANCH   4   5
ATOM      5  O   UNL     1      48.618  14.691  17.574  0.00  0.00    -0.474 OA
ATOM      6  H   UNL     1      48.292  14.561  16.672  0.00  0.00    +0.400 HD
ENDBRANCH   4   5
BRANCH  14  15
ATOM     15  O   UNL     1      52.261  17.854  16.261  0.00  0.00    -0.475 OA
ATOM     16  H   UNL     1      52.750  18.156  15.483  0.00  0.00    +0.399 HD
ENDBRANCH  14  15
TORSDOF 7
ENDMDL
MODEL 3
REMARK VINA RESULT:      -6.8      2.277      4.140
REMARK  Name = ZINC05922776
REMARK  9 active torsions:
REMARK  status: ('A' for Active; 'I' for Inactive)
REMARK    1  A    between atoms: C1_1  and  C2_2
REMARK    2  A    between atoms: C4_4  and  O8_31
REMARK    3  A    between atoms: C7_7  and  C8_8
REMARK    4  A    between atoms: C9_9  and  O4_19
REMARK    5  A    between atoms: C11_11  and  O3_18
REMARK    6  A    between atoms: C12_12  and  C14_15
REMARK    7  A    between atoms: C13_13  and  O1_14
REMARK    8  A    between atoms: C14_15  and  C15_17
REMARK    9  A    between atoms: C21_26  and  O7_30
REMARK                            x       y       z     vdW  Elec       q    Type
REMARK                         _______ _______ _______ _____ _____    ______ ____
ROOT
ATOM      1  C   UNL     1      45.547  22.019  21.254  0.00  0.00    +0.111 C 
ATOM      2  C   UNL     1      46.383  21.008  20.511  0.00  0.00    -0.040 A 
ATOM      3  C   UNL     1      47.697  21.291  20.219  0.00  0.00    +0.020 A 
ATOM      4  C   UNL     1      48.485  20.369  19.532  0.00  0.00    +0.173 A 
ATOM      7  C   UNL     1      47.943  19.145  19.132  0.00  0.00    -0.154 A 
ATOM      8  C   UNL     1      46.599  18.847  19.431  0.00  0.00    -0.074 A 
ATOM      9  C   UNL     1      46.016  17.564  19.010  0.00  0.00    +0.431 C 
ATOM     10  C   UNL     1      46.845  16.583  18.281  0.00  0.00    -0.102 A 
ATOM     11  C   UNL     1      46.305  15.364  17.883  0.00  0.00    +0.068 A 
ATOM     12  C   UNL     1      47.088  14.447  17.202  0.00  0.00    +0.063 A 
ATOM     13  C   UNL     1      48.406  14.731  16.910  0.00  0.00    +0.017 A 
ATOM     14  C   UNL     1      48.968  15.943  17.297  0.00  0.00    +0.162 A 
ATOM     17  C   UNL     1      48.190  16.879  17.987  0.00  0.00    -0.152 A 
ATOM     18  O   UNL     1      44.854  17.309  19.264  0.00  0.00    -0.406 OA
ATOM     19  C   UNL     1      48.770  18.167  18.405  0.00  0.00    +0.431 C 
ATOM     20  O   UNL     1      49.933  18.423  18.149  0.00  0.00    -0.401 OA
ATOM     21  C   UNL     1      45.817  19.788  20.119  0.00  0.00    +0.004 A 
ENDROOT
BRANCH  21  22
ATOM     22  C   UNL     1      44.405  19.491  20.435  0.00  0.00    -0.095 A 
ATOM     23  C   UNL     1      44.075  18.845  21.637  0.00  0.00    +0.176 A 
ATOM     26  C   UNL     1      42.752  18.564  21.939  0.00  0.00    -0.028 A 
ATOM     27  C   UNL     1      41.743  18.917  21.059  0.00  0.00    +0.176 A 
ATOM     30  C   UNL     1      42.057  19.561  19.846  0.00  0.00    -0.215 A 
ATOM     34  C   UNL     1      43.396  19.853  19.539  0.00  0.00    +0.192 A 
BRANCH  30  31
ATOM     31  C   UNL     1      40.992  19.929  18.914  0.00  0.00    +0.416 C 
ATOM     32  C   UNL     1      40.227  21.211  19.112  0.00  0.00    +0.080 C 
ATOM     33  O   UNL     1      40.725  19.200  17.980  0.00  0.00    -0.439 OA
ENDBRANCH  30  31
BRANCH  23  24
ATOM     24  O   UNL     1      45.054  18.494  22.505  0.00  0.00    -0.484 OA
ATOM     25  H   UNL     1      45.704  19.191  22.670  0.00  0.00    +0.396 HD
ENDBRANCH  23  24
BRANCH  27  28
ATOM     28  O   UNL     1      40.452  18.637  21.363  0.00  0.00    -0.491 OA
ATOM     29  H   UNL     1      40.074  17.913  20.846  0.00  0.00    +0.403 HD
ENDBRANCH  27  28
BRANCH  34  35
ATOM     35  O   UNL     1      43.708  20.477  18.377  0.00  0.00    -0.480 OA
ATOM     36  H   UNL     1      42.977  20.976  17.990  0.00  0.00    +0.394 HD
ENDBRANCH  34  35
ENDBRANCH  21  22
BRANCH   4   5
ATOM      5  O   UNL     1      49.780  20.660  19.251  0.00  0.00    -0.474 OA
ATOM      6  H   UNL     1      50.275  19.921  18.872  0.00  0.00    +0.400 HD
ENDBRANCH   4   5
BRANCH  14  15
ATOM     15  O   UNL     1      50.264  16.217  17.009  0.00  0.00    -0.475 OA
ATOM     16  H   UNL     1      50.734  16.684  17.712  0.00  0.00    +0.399 HD
ENDBRANCH  14  15
TORSDOF 7
ENDMDL
MODEL 4
REMARK VINA RESULT:      -6.1      1.964      6.233
REMARK  Name = ZINC05922776
REMARK  9 active torsions:
REMARK  status: ('A' for Active; 'I' for Inactive)
REMARK    1  A    between atoms: C1_1  and  C2_2
REMARK    2  A    between atoms: C4_4  and  O8_31
REMARK    3  A    between atoms: C7_7  and  C8_8
REMARK    4  A    between atoms: C9_9  and  O4_19
REMARK    5  A    between atoms: C11_11  and  O3_18
REMARK    6  A    between atoms: C12_12  and  C14_15
REMARK    7  A    between atoms: C13_13  and  O1_14
REMARK    8  A    between atoms: C14_15  and  C15_17
REMARK    9  A    between atoms: C21_26  and  O7_30
REMARK                            x       y       z     vdW  Elec       q    Type
REMARK                         _______ _______ _______ _____ _____    ______ ____
ROOT
ATOM      1  C   UNL     1      49.749  16.246  20.174  0.00  0.00    +0.111 C 
ATOM      2  C   UNL     1      48.395  16.908  20.166  0.00  0.00    -0.040 A 
ATOM      3  C   UNL     1      47.266  16.153  20.384  0.00  0.00    +0.020 A 
ATOM      4  C   UNL     1      46.004  16.747  20.379  0.00  0.00    +0.173 A 
ATOM      7  C   UNL     1      45.878  18.120  20.153  0.00  0.00    -0.154 A 
ATOM      8  C   UNL     1      47.030  18.900  19.934  0.00  0.00    -0.074 A 
ATOM      9  C   UNL     1      46.909  20.345  19.689  0.00  0.00    +0.431 C 
ATOM     10  C   UNL     1      45.575  20.980  19.683  0.00  0.00    -0.102 A 
ATOM     11  C   UNL     1      45.450  22.347  19.458  0.00  0.00    +0.068 A 
ATOM     12  C   UNL     1      44.197  22.938  19.456  0.00  0.00    +0.063 A 
ATOM     13  C   UNL     1      43.064  22.181  19.674  0.00  0.00    +0.017 A 
ATOM     14  C   UNL     1      43.165  20.812  19.901  0.00  0.00    +0.162 A 
ATOM     17  C   UNL     1      44.424  20.202  19.908  0.00  0.00    -0.152 A 
ATOM     18  O   UNL     1      47.904  21.016  19.496  0.00  0.00    -0.406 OA
ATOM     19  C   UNL     1      44.547  18.753  20.147  0.00  0.00    +0.431 C 
ATOM     20  O   UNL     1      43.551  18.080  20.339  0.00  0.00    -0.401 OA
ATOM     21  C   UNL     1      48.293  18.285  19.936  0.00  0.00    +0.004 A 
ENDROOT
BRANCH  21  22
ATOM     22  C   UNL     1      49.510  19.090  19.704  0.00  0.00    -0.095 A 
ATOM     23  C   UNL     1      50.120  19.766  20.772  0.00  0.00    +0.176 A 
ATOM     26  C   UNL     1      51.262  20.522  20.559  0.00  0.00    -0.028 A 
ATOM     27  C   UNL     1      51.812  20.618  19.293  0.00  0.00    +0.176 A 
ATOM     30  C   UNL     1      51.210  19.951  18.209  0.00  0.00    -0.215 A 
ATOM     34  C   UNL     1      50.055  19.179  18.421  0.00  0.00    +0.192 A 
BRANCH  30  31
ATOM     31  C   UNL     1      51.787  20.056  16.870  0.00  0.00    +0.416 C 
ATOM     32  C   UNL     1      51.607  21.320  16.069  0.00  0.00    +0.080 C 
ATOM     33  O   UNL     1      52.410  19.124  16.403  0.00  0.00    -0.439 OA
ENDBRANCH  30  31
BRANCH  23  24
ATOM     24  O   UNL     1      49.589  19.680  22.016  0.00  0.00    -0.484 OA
ATOM     25  H   UNL     1      48.801  19.124  22.071  0.00  0.00    +0.396 HD
ENDBRANCH  23  24
BRANCH  27  28
ATOM     28  O   UNL     1      52.928  21.360  19.095  0.00  0.00    -0.491 OA
ATOM     29  H   UNL     1      52.934  22.199  19.576  0.00  0.00    +0.403 HD
ENDBRANCH  27  28
BRANCH  34  35
ATOM     35  O   UNL     1      49.471  18.528  17.386  0.00  0.00    -0.480 OA
ATOM     36  H   UNL     1      49.773  18.822  16.516  0.00  0.00    +0.394 HD
ENDBRANCH  34  35
ENDBRANCH  21  22
BRANCH   4   5
ATOM      5  O   UNL     1      44.899  15.992  20.595  0.00  0.00    -0.474 OA
ATOM      6  H   UNL     1      44.746  15.317  19.919  0.00  0.00    +0.400 HD
ENDBRANCH   4   5
BRANCH  14  15
ATOM     15  O   UNL     1      42.049  20.073  20.115  0.00  0.00    -0.475 OA
ATOM     16  H   UNL     1      41.275  20.375  19.622  0.00  0.00    +0.399 HD
ENDBRANCH  14  15
TORSDOF 7
ENDMDL
MODEL 5
REMARK VINA RESULT:      -5.9      3.265      6.682
REMARK  Name = ZINC05922776
REMARK  9 active torsions:
REMARK  status: ('A' for Active; 'I' for Inactive)
REMARK    1  A    between atoms: C1_1  and  C2_2
REMARK    2  A    between atoms: C4_4  and  O8_31
REMARK    3  A    between atoms: C7_7  and  C8_8
REMARK    4  A    between atoms: C9_9  and  O4_19
REMARK    5  A    between atoms: C11_11  and  O3_18
REMARK    6  A    between atoms: C12_12  and  C14_15
REMARK    7  A    between atoms: C13_13  and  O1_14
REMARK    8  A    between atoms: C14_15  and  C15_17
REMARK    9  A    between atoms: C21_26  and  O7_30
REMARK                            x       y       z     vdW  Elec       q    Type
REMARK                         _______ _______ _______ _____ _____    ______ ____
ROOT
ATOM      1  C   UNL     1      46.041  15.772  20.723  0.00  0.00    +0.111 C 
ATOM      2  C   UNL     1      47.063  16.830  20.395  0.00  0.00    -0.040 A 
ATOM      3  C   UNL     1      47.269  17.874  21.266  0.00  0.00    +0.020 A 
ATOM      4  C   UNL     1      48.209  18.863  20.979  0.00  0.00    +0.173 A 
ATOM      7  C   UNL     1      48.952  18.800  19.798  0.00  0.00    -0.154 A 
ATOM      8  C   UNL     1      48.751  17.731  18.904  0.00  0.00    -0.074 A 
ATOM      9  C   UNL     1      49.524  17.658  17.655  0.00  0.00    +0.431 C 
ATOM     10  C   UNL     1      50.522  18.702  17.345  0.00  0.00    -0.102 A 
ATOM     11  C   UNL     1      51.262  18.639  16.169  0.00  0.00    +0.068 A 
ATOM     12  C   UNL     1      52.198  19.620  15.884  0.00  0.00    +0.063 A 
ATOM     13  C   UNL     1      52.403  20.667  16.759  0.00  0.00    +0.017 A 
ATOM     14  C   UNL     1      51.674  20.752  17.940  0.00  0.00    +0.162 A 
ATOM     17  C   UNL     1      50.727  19.767  18.242  0.00  0.00    -0.152 A 
ATOM     18  O   UNL     1      49.346  16.737  16.880  0.00  0.00    -0.406 OA
ATOM     19  C   UNL     1      49.947  19.842  19.490  0.00  0.00    +0.431 C 
ATOM     20  O   UNL     1      50.124  20.764  20.264  0.00  0.00    -0.401 OA
ATOM     21  C   UNL     1      47.796  16.747  19.205  0.00  0.00    +0.004 A 
ENDROOT
BRANCH  21  22
ATOM     22  C   UNL     1      47.571  15.622  18.273  0.00  0.00    -0.095 A 
ATOM     23  C   UNL     1      46.703  15.778  17.180  0.00  0.00    +0.176 A 
ATOM     26  C   UNL     1      46.488  14.727  16.304  0.00  0.00    -0.028 A 
ATOM     27  C   UNL     1      47.126  13.513  16.495  0.00  0.00    +0.176 A 
ATOM     30  C   UNL     1      47.996  13.338  17.589  0.00  0.00    -0.215 A 
ATOM     34  C   UNL     1      48.221  14.403  18.477  0.00  0.00    +0.192 A 
BRANCH  30  31
ATOM     31  C   UNL     1      48.666  12.055  17.796  0.00  0.00    +0.416 C 
ATOM     32  C   UNL     1      50.104  11.881  17.382  0.00  0.00    +0.080 C 
ATOM     33  O   UNL     1      48.062  11.130  18.300  0.00  0.00    -0.439 OA
ENDBRANCH  30  31
BRANCH  23  24
ATOM     24  O   UNL     1      46.072  16.961  16.984  0.00  0.00    -0.484 OA
ATOM     25  H   UNL     1      46.665  17.723  16.943  0.00  0.00    +0.396 HD
ENDBRANCH  23  24
BRANCH  27  28
ATOM     28  O   UNL     1      46.909  12.491  15.633  0.00  0.00    -0.491 OA
ATOM     29  H   UNL     1      47.148  12.691  14.717  0.00  0.00    +0.403 HD
ENDBRANCH  27  28
BRANCH  34  35
ATOM     35  O   UNL     1      49.061  14.247  19.530  0.00  0.00    -0.480 OA
ATOM     36  H   UNL     1      49.808  14.859  19.530  0.00  0.00    +0.394 HD
ENDBRANCH  34  35
ENDBRANCH  21  22
BRANCH   4   5
ATOM      5  O   UNL     1      48.401  19.887  21.847  0.00  0.00    -0.474 OA
ATOM      6  H   UNL     1      48.171  19.675  22.762  0.00  0.00    +0.400 HD
ENDBRANCH   4   5
BRANCH  14  15
ATOM     15  O   UNL     1      51.881  21.782  18.797  0.00  0.00    -0.475 OA
ATOM     16  H   UNL     1      51.073  22.245  19.058  0.00  0.00    +0.399 HD
ENDBRANCH  14  15
TORSDOF 7
ENDMDL
MODEL 6
REMARK VINA RESULT:      -5.8      1.628      4.330
REMARK  Name = ZINC05922776
REMARK  9 active torsions:
REMARK  status: ('A' for Active; 'I' for Inactive)
REMARK    1  A    between atoms: C1_1  and  C2_2
REMARK    2  A    between atoms: C4_4  and  O8_31
REMARK    3  A    between atoms: C7_7  and  C8_8
REMARK    4  A    between atoms: C9_9  and  O4_19
REMARK    5  A    between atoms: C11_11  and  O3_18
REMARK    6  A    between atoms: C12_12  and  C14_15
REMARK    7  A    between atoms: C13_13  and  O1_14
REMARK    8  A    between atoms: C14_15  and  C15_17
REMARK    9  A    between atoms: C21_26  and  O7_30
REMARK                            x       y       z     vdW  Elec       q    Type
REMARK                         _______ _______ _______ _____ _____    ______ ____
ROOT
ATOM      1  C   UNL     1      50.151  21.152  18.678  0.00  0.00    +0.111 C 
ATOM      2  C   UNL     1      49.727  19.717  18.490  0.00  0.00    -0.040 A 
ATOM      3  C   UNL     1      50.463  18.889  17.675  0.00  0.00    +0.020 A 
ATOM      4  C   UNL     1      50.086  17.559  17.488  0.00  0.00    +0.173 A 
ATOM      7  C   UNL     1      48.952  17.057  18.131  0.00  0.00    -0.154 A 
ATOM      8  C   UNL     1      48.196  17.899  18.971  0.00  0.00    -0.074 A 
ATOM      9  C   UNL     1      46.997  17.382  19.647  0.00  0.00    +0.431 C 
ATOM     10  C   UNL     1      46.592  15.974  19.454  0.00  0.00    -0.102 A 
ATOM     11  C   UNL     1      45.463  15.474  20.094  0.00  0.00    +0.068 A 
ATOM     12  C   UNL     1      45.089  14.153  19.910  0.00  0.00    +0.063 A 
ATOM     13  C   UNL     1      45.828  13.323  19.093  0.00  0.00    +0.017 A 
ATOM     14  C   UNL     1      46.960  13.801  18.442  0.00  0.00    +0.162 A 
ATOM     17  C   UNL     1      47.351  15.132  18.619  0.00  0.00    -0.152 A 
ATOM     18  O   UNL     1      46.342  18.110  20.368  0.00  0.00    -0.406 OA
ATOM     19  C   UNL     1      48.548  15.654  17.937  0.00  0.00    +0.431 C 
ATOM     20  O   UNL     1      49.204  14.925  17.215  0.00  0.00    -0.401 OA
ATOM     21  C   UNL     1      48.586  19.236  19.144  0.00  0.00    +0.004 A 
ENDROOT
BRANCH  21  22
ATOM     22  C   UNL     1      47.800  20.131  20.017  0.00  0.00    -0.095 A 
ATOM     23  C   UNL     1      48.212  20.362  21.340  0.00  0.00    +0.176 A 
ATOM     26  C   UNL     1      47.477  21.200  22.163  0.00  0.00    -0.028 A 
ATOM     27  C   UNL     1      46.333  21.819  21.692  0.00  0.00    +0.176 A 
ATOM     30  C   UNL     1      45.903  21.594  20.370  0.00  0.00    -0.215 A 
ATOM     34  C   UNL     1      46.646  20.749  19.529  0.00  0.00    +0.192 A 
BRANCH  30  31
ATOM     31  C   UNL     1      44.690  22.243  19.872  0.00  0.00    +0.416 C 
ATOM     32  C   UNL     1      44.714  23.702  19.500  0.00  0.00    +0.080 C 
ATOM     33  O   UNL     1      43.663  21.604  19.761  0.00  0.00    -0.439 OA
ENDBRANCH  30  31
BRANCH  23  24
ATOM     24  O   UNL     1      49.330  19.761  21.813  0.00  0.00    -0.484 OA
ATOM     25  H   UNL     1      49.778  19.197  21.167  0.00  0.00    +0.396 HD
ENDBRANCH  23  24
BRANCH  27  28
ATOM     28  O   UNL     1      45.622  22.637  22.505  0.00  0.00    -0.491 OA
ATOM     29  H   UNL     1      44.821  22.997  22.100  0.00  0.00    +0.403 HD
ENDBRANCH  27  28
BRANCH  34  35
ATOM     35  O   UNL     1      46.244  20.531  18.253  0.00  0.00    -0.480 OA
ATOM     36  H   UNL     1      46.585  19.712  17.869  0.00  0.00    +0.394 HD
ENDBRANCH  34  35
ENDBRANCH  21  22
BRANCH   4   5
ATOM      5  O   UNL     1      50.821  16.754  16.683  0.00  0.00    -0.474 OA
ATOM      6  H   UNL     1      51.325  17.228  16.007  0.00  0.00    +0.400 HD
ENDBRANCH   4   5
BRANCH  14  15
ATOM     15  O   UNL     1      47.683  12.980  17.641  0.00  0.00    -0.475 OA
ATOM     16  H   UNL     1      47.357  12.928  16.732  0.00  0.00    +0.399 HD
ENDBRANCH  14  15
TORSDOF 7
ENDMDL
MODEL 7
REMARK VINA RESULT:      -5.8      3.036      7.170
REMARK  Name = ZINC05922776
REMARK  9 active torsions:
REMARK  status: ('A' for Active; 'I' for Inactive)
REMARK    1  A    between atoms: C1_1  and  C2_2
REMARK    2  A    between atoms: C4_4  and  O8_31
REMARK    3  A    between atoms: C7_7  and  C8_8
REMARK    4  A    between atoms: C9_9  and  O4_19
REMARK    5  A    between atoms: C11_11  and  O3_18
REMARK    6  A    between atoms: C12_12  and  C14_15
REMARK    7  A    between atoms: C13_13  and  O1_14
REMARK    8  A    between atoms: C14_15  and  C15_17
REMARK    9  A    between atoms: C21_26  and  O7_30
REMARK                            x       y       z     vdW  Elec       q    Type
REMARK                         _______ _______ _______ _____ _____    ______ ____
ROOT
ATOM      1  C   UNL     1      45.285  14.028  19.394  0.00  0.00    +0.111 C 
ATOM      2  C   UNL     1      46.088  15.297  19.259  0.00  0.00    -0.040 A 
ATOM      3  C   UNL     1      45.615  16.466  19.807  0.00  0.00    +0.020 A 
ATOM      4  C   UNL     1      46.344  17.649  19.691  0.00  0.00    +0.173 A 
ATOM      7  C   UNL     1      47.565  17.655  19.014  0.00  0.00    -0.154 A 
ATOM      8  C   UNL     1      48.058  16.460  18.454  0.00  0.00    -0.074 A 
ATOM      9  C   UNL     1      49.340  16.457  17.734  0.00  0.00    +0.431 C 
ATOM     10  C   UNL     1      50.117  17.707  17.607  0.00  0.00    -0.102 A 
ATOM     11  C   UNL     1      51.334  17.712  16.933  0.00  0.00    +0.068 A 
ATOM     12  C   UNL     1      52.059  18.887  16.819  0.00  0.00    +0.063 A 
ATOM     13  C   UNL     1      51.584  20.060  17.370  0.00  0.00    +0.017 A 
ATOM     14  C   UNL     1      50.370  20.079  18.048  0.00  0.00    +0.162 A 
ATOM     17  C   UNL     1      49.627  18.900  18.172  0.00  0.00    -0.152 A 
ATOM     18  O   UNL     1      49.763  15.426  17.246  0.00  0.00    -0.406 OA
ATOM     19  C   UNL     1      48.339  18.903  18.888  0.00  0.00    +0.431 C 
ATOM     20  O   UNL     1      47.916  19.935  19.375  0.00  0.00    -0.401 OA
ATOM     21  C   UNL     1      47.310  15.279  18.574  0.00  0.00    +0.004 A 
ENDROOT
BRANCH  21  22
ATOM     22  C   UNL     1      47.812  14.020  17.987  0.00  0.00    -0.095 A 
ATOM     23  C   UNL     1      48.560  13.127  18.773  0.00  0.00    +0.176 A 
ATOM     26  C   UNL     1      49.033  11.945  18.227  0.00  0.00    -0.028 A 
ATOM     27  C   UNL     1      48.774  11.631  16.904  0.00  0.00    +0.176 A 
ATOM     30  C   UNL     1      48.030  12.517  16.101  0.00  0.00    -0.215 A 
ATOM     34  C   UNL     1      47.544  13.714  16.651  0.00  0.00    +0.192 A 
BRANCH  30  31
ATOM     31  C   UNL     1      47.761  12.188  14.702  0.00  0.00    +0.416 C 
ATOM     32  C   UNL     1      48.615  12.780  13.611  0.00  0.00    +0.080 C 
ATOM     33  O   UNL     1      46.848  11.440  14.420  0.00  0.00    -0.439 OA
ENDBRANCH  30  31
BRANCH  23  24
ATOM     24  O   UNL     1      48.821  13.425  20.069  0.00  0.00    -0.484 OA
ATOM     25  H   UNL     1      48.107  13.899  20.516  0.00  0.00    +0.396 HD
ENDBRANCH  23  24
BRANCH  27  28
ATOM     28  O   UNL     1      49.242  10.472  16.380  0.00  0.00    -0.491 OA
ATOM     29  H   UNL     1      49.861  10.001  16.955  0.00  0.00    +0.403 HD
ENDBRANCH  27  28
BRANCH  34  35
ATOM     35  O   UNL     1      46.822  14.571  15.888  0.00  0.00    -0.480 OA
ATOM     36  H   UNL     1      46.736  14.298  14.965  0.00  0.00    +0.394 HD
ENDBRANCH  34  35
ENDBRANCH  21  22
BRANCH   4   5
ATOM      5  O   UNL     1      45.866  18.795  20.237  0.00  0.00    -0.474 OA
ATOM      6  H   UNL     1      46.506  19.520  20.250  0.00  0.00    +0.400 HD
ENDBRANCH   4   5
BRANCH  14  15
ATOM     15  O   UNL     1      49.908  21.233  18.588  0.00  0.00    -0.475 OA
ATOM     16  H   UNL     1      49.552  21.136  19.482  0.00  0.00    +0.399 HD
ENDBRANCH  14  15
TORSDOF 7
ENDMDL
MODEL 8
REMARK VINA RESULT:      -5.5      2.277      4.352
REMARK  Name = ZINC05922776
REMARK  9 active torsions:
REMARK  status: ('A' for Active; 'I' for Inactive)
REMARK    1  A    between atoms: C1_1  and  C2_2
REMARK    2  A    between atoms: C4_4  and  O8_31
REMARK    3  A    between atoms: C7_7  and  C8_8
REMARK    4  A    between atoms: C9_9  and  O4_19
REMARK    5  A    between atoms: C11_11  and  O3_18
REMARK    6  A    between atoms: C12_12  and  C14_15
REMARK    7  A    between atoms: C13_13  and  O1_14
REMARK    8  A    between atoms: C14_15  and  C15_17
REMARK    9  A    between atoms: C21_26  and  O7_30
REMARK                            x       y       z     vdW  Elec       q    Type
REMARK                         _______ _______ _______ _____ _____    ______ ____
ROOT
ATOM      1  C   UNL     1      46.680  22.253  22.257  0.00  0.00    +0.111 C 
ATOM      2  C   UNL     1      47.784  21.445  21.624  0.00  0.00    -0.040 A 
ATOM      3  C   UNL     1      49.096  21.735  21.916  0.00  0.00    +0.020 A 
ATOM      4  C   UNL     1      50.131  21.000  21.339  0.00  0.00    +0.173 A 
ATOM      7  C   UNL     1      49.840  19.958  20.455  0.00  0.00    -0.154 A 
ATOM      8  C   UNL     1      48.498  19.652  20.155  0.00  0.00    -0.074 A 
ATOM      9  C   UNL     1      48.181  18.561  19.222  0.00  0.00    +0.431 C 
ATOM     10  C   UNL     1      49.273  17.778  18.607  0.00  0.00    -0.102 A 
ATOM     11  C   UNL     1      48.983  16.740  17.727  0.00  0.00    +0.068 A 
ATOM     12  C   UNL     1      50.010  16.008  17.155  0.00  0.00    +0.063 A 
ATOM     13  C   UNL     1      51.327  16.299  17.449  0.00  0.00    +0.017 A 
ATOM     14  C   UNL     1      51.640  17.333  18.325  0.00  0.00    +0.162 A 
ATOM     17  C   UNL     1      50.613  18.080  18.912  0.00  0.00    -0.152 A 
ATOM     18  O   UNL     1      47.023  18.300  18.959  0.00  0.00    -0.406 OA
ATOM     19  C   UNL     1      50.929  19.178  19.842  0.00  0.00    +0.431 C 
ATOM     20  O   UNL     1      52.089  19.439  20.105  0.00  0.00    -0.401 OA
ATOM     21  C   UNL     1      47.468  20.406  20.740  0.00  0.00    +0.004 A 
ENDROOT
BRANCH  21  22
ATOM     22  C   UNL     1      46.057  20.099  20.430  0.00  0.00    -0.095 A 
ATOM     23  C   UNL     1      45.466  20.612  19.265  0.00  0.00    +0.176 A 
ATOM     26  C   UNL     1      44.142  20.328  18.970  0.00  0.00    -0.028 A 
ATOM     27  C   UNL     1      43.389  19.535  19.819  0.00  0.00    +0.176 A 
ATOM     30  C   UNL     1      43.965  19.017  20.995  0.00  0.00    -0.215 A 
ATOM     34  C   UNL     1      45.308  19.298  21.296  0.00  0.00    +0.192 A 
BRANCH  30  31
ATOM     31  C   UNL     1      43.170  18.184  21.896  0.00  0.00    +0.416 C 
ATOM     32  C   UNL     1      43.508  16.726  22.071  0.00  0.00    +0.080 C 
ATOM     33  O   UNL     1      42.236  18.668  22.503  0.00  0.00    -0.439 OA
ENDBRANCH  30  31
BRANCH  23  24
ATOM     24  O   UNL     1      46.192  21.391  18.426  0.00  0.00    -0.484 OA
ATOM     25  H   UNL     1      46.604  22.153  18.854  0.00  0.00    +0.396 HD
ENDBRANCH  23  24
BRANCH  27  28
ATOM     28  O   UNL     1      42.096  19.264  19.522  0.00  0.00    -0.491 OA
ATOM     29  H   UNL     1      41.656  19.955  19.008  0.00  0.00    +0.403 HD
ENDBRANCH  27  28
BRANCH  34  35
ATOM     35  O   UNL     1      45.874  18.799  22.422  0.00  0.00    -0.480 OA
ATOM     36  H   UNL     1      46.425  18.019  22.272  0.00  0.00    +0.394 HD
ENDBRANCH  34  35
ENDBRANCH  21  22
BRANCH   4   5
ATOM      5  O   UNL     1      51.420  21.297  21.637  0.00  0.00    -0.474 OA
ATOM      6  H   UNL     1      51.804  21.986  21.077  0.00  0.00    +0.400 HD
ENDBRANCH   4   5
BRANCH  14  15
ATOM     15  O   UNL     1      52.935  17.615  18.611  0.00  0.00    -0.475 OA
ATOM     16  H   UNL     1      53.273  18.407  18.171  0.00  0.00    +0.399 HD
ENDBRANCH  14  15
TORSDOF 7
ENDMDL
MODEL 9
REMARK VINA RESULT:      -5.5      2.446      7.921
REMARK  Name = ZINC05922776
REMARK  9 active torsions:
REMARK  status: ('A' for Active; 'I' for Inactive)
REMARK    1  A    between atoms: C1_1  and  C2_2
REMARK    2  A    between atoms: C4_4  and  O8_31
REMARK    3  A    between atoms: C7_7  and  C8_8
REMARK    4  A    between atoms: C9_9  and  O4_19
REMARK    5  A    between atoms: C11_11  and  O3_18
REMARK    6  A    between atoms: C12_12  and  C14_15
REMARK    7  A    between atoms: C13_13  and  O1_14
REMARK    8  A    between atoms: C14_15  and  C15_17
REMARK    9  A    between atoms: C21_26  and  O7_30
REMARK                            x       y       z     vdW  Elec       q    Type
REMARK                         _______ _______ _______ _____ _____    ______ ____
ROOT
ATOM      1  C   UNL     1      50.039  17.432  17.244  0.00  0.00    +0.111 C 
ATOM      2  C   UNL     1      49.019  18.051  18.166  0.00  0.00    -0.040 A 
ATOM      3  C   UNL     1      49.183  19.347  18.593  0.00  0.00    +0.020 A 
ATOM      4  C   UNL     1      48.251  19.936  19.447  0.00  0.00    +0.173 A 
ATOM      7  C   UNL     1      47.139  19.209  19.876  0.00  0.00    -0.154 A 
ATOM      8  C   UNL     1      46.961  17.882  19.439  0.00  0.00    -0.074 A 
ATOM      9  C   UNL     1      45.796  17.106  19.888  0.00  0.00    +0.431 C 
ATOM     10  C   UNL     1      44.805  17.724  20.793  0.00  0.00    -0.102 A 
ATOM     11  C   UNL     1      43.697  16.999  21.220  0.00  0.00    +0.068 A 
ATOM     12  C   UNL     1      42.769  17.584  22.066  0.00  0.00    +0.063 A 
ATOM     13  C   UNL     1      42.935  18.886  22.495  0.00  0.00    +0.017 A 
ATOM     14  C   UNL     1      44.035  19.629  22.082  0.00  0.00    +0.162 A 
ATOM     17  C   UNL     1      44.979  19.052  21.226  0.00  0.00    -0.152 A 
ATOM     18  O   UNL     1      45.646  15.958  19.514  0.00  0.00    -0.406 OA
ATOM     19  C   UNL     1      46.151  19.826  20.779  0.00  0.00    +0.431 C 
ATOM     20  O   UNL     1      46.301  20.974  21.154  0.00  0.00    -0.401 OA
ATOM     21  C   UNL     1      47.912  17.302  18.584  0.00  0.00    +0.004 A 
ENDROOT
BRANCH  21  22
ATOM     22  C   UNL     1      47.741  15.910  18.120  0.00  0.00    -0.095 A 
ATOM     23  C   UNL     1      47.028  15.644  16.940  0.00  0.00    +0.176 A 
ATOM     26  C   UNL     1      46.865  14.339  16.502  0.00  0.00    -0.028 A 
ATOM     27  C   UNL     1      47.403  13.286  17.221  0.00  0.00    +0.176 A 
ATOM     30  C   UNL     1      48.117  13.535  18.409  0.00  0.00    -0.215 A 
ATOM     34  C   UNL     1      48.289  14.855  18.855  0.00  0.00    +0.192 A 
BRANCH  30  31
ATOM     31  C   UNL     1      48.681  12.423  19.172  0.00  0.00    +0.416 C 
ATOM     32  C   UNL     1      49.911  11.711  18.670  0.00  0.00    +0.080 C 
ATOM     33  O   UNL     1      48.157  12.072  20.210  0.00  0.00    -0.439 OA
ENDBRANCH  30  31
BRANCH  23  24
ATOM     24  O   UNL     1      46.495  16.667  16.229  0.00  0.00    -0.484 OA
ATOM     25  H   UNL     1      45.624  16.949  16.537  0.00  0.00    +0.396 HD
ENDBRANCH  23  24
BRANCH  27  28
ATOM     28  O   UNL     1      47.238  12.015  16.783  0.00  0.00    -0.491 OA
ATOM     29  H   UNL     1      47.278  11.920  15.822  0.00  0.00    +0.403 HD
ENDBRANCH  27  28
BRANCH  34  35
ATOM     35  O   UNL     1      48.980  15.106  19.994  0.00  0.00    -0.480 OA
ATOM     36  H   UNL     1      48.513  15.677  20.619  0.00  0.00    +0.394 HD
ENDBRANCH  34  35
ENDBRANCH  21  22
BRANCH   4   5
ATOM      5  O   UNL     1      48.425  21.216  19.861  0.00  0.00    -0.474 OA
ATOM      6  H   UNL     1      48.972  21.301  20.654  0.00  0.00    +0.400 HD
ENDBRANCH   4   5
BRANCH  14  15
ATOM     15  O   UNL     1      44.193  20.907  22.505  0.00  0.00    -0.475 OA
ATOM     16  H   UNL     1      44.465  21.522  21.810  0.00  0.00    +0.399 HD
ENDBRANCH  14  15
TORSDOF 7
ENDMDL
