MODEL 1
REMARK VINA RESULT:      -5.9      0.000      0.000
REMARK  Name = ZINC95486373
REMARK  0 active torsions:
REMARK  status: ('A' for Active; 'I' for Inactive)
REMARK                            x       y       z     vdW  Elec       q    Type
REMARK                         _______ _______ _______ _____ _____    ______ ____
ROOT
ATOM      1  C   UNL     1      43.286  20.388  18.764  0.00  0.00    +0.052 A 
ATOM      2  C   UNL     1      43.738  19.318  19.537  0.00  0.00    +0.001 A 
ATOM      3  C   UNL     1      42.897  18.676  20.472  0.00  0.00    -0.126 A 
ATOM      4  C   UNL     1      43.449  17.593  21.314  0.00  0.00    +0.586 C 
ATOM      5  N   UNL     1      44.638  17.055  20.977  0.00  0.00    -0.612 N 
ATOM      6  C   UNL     1      45.465  16.131  21.763  0.00  0.00    +0.266 C 
ATOM      7  C   UNL     1      46.805  15.976  21.002  0.00  0.00    +0.090 C 
ATOM      8  C   UNL     1      46.831  17.191  20.099  0.00  0.00    -0.143 C 
ATOM      9  C   UNL     1      47.805  17.930  19.682  0.00  0.00    +0.013 C 
ATOM     10  C   UNL     1      47.530  19.155  18.850  0.00  0.00    +0.135 C 
ATOM     11  C   UNL     1      46.101  19.586  18.962  0.00  0.00    +0.019 C 
ATOM     12  C   UNL     1      45.367  17.368  19.734  0.00  0.00    +0.308 C 
ATOM     13  O   UNL     1      42.841  17.195  22.291  0.00  0.00    -0.525 OA
ATOM     14  C   UNL     1      41.561  19.069  20.627  0.00  0.00    +0.124 A 
ATOM     15  C   UNL     1      41.117  20.126  19.850  0.00  0.00    +0.022 A 
ATOM     16  O   UNL     1      39.896  20.708  19.799  0.00  0.00    -0.300 OA
ATOM     17  C   UNL     1      39.882  21.471  18.576  0.00  0.00    +0.439 C 
ATOM     18  O   UNL     1      41.273  21.769  18.331  0.00  0.00    -0.300 OA
ATOM     19  C   UNL     1      45.125  18.820  19.390  0.00  0.00    -0.112 C 
ATOM     20  C   UNL     1      41.966  20.780  18.937  0.00  0.00    +0.065 A 
ENDROOT
TORSDOF 0
ENDMDL
MODEL 2
REMARK VINA RESULT:      -5.8      2.559      3.613
REMARK  Name = ZINC95486373
REMARK  0 active torsions:
REMARK  status: ('A' for Active; 'I' for Inactive)
REMARK                            x       y       z     vdW  Elec       q    Type
REMARK                         _______ _______ _______ _____ _____    ______ ____
ROOT
ATOM      1  C   UNL     1      42.908  19.764  19.233  0.00  0.00    +0.052 A 
ATOM      2  C   UNL     1      43.929  20.510  19.822  0.00  0.00    +0.001 A 
ATOM      3  C   UNL     1      43.862  21.918  19.901  0.00  0.00    -0.126 A 
ATOM      4  C   UNL     1      45.005  22.663  20.473  0.00  0.00    +0.586 C 
ATOM      5  N   UNL     1      45.943  21.980  21.158  0.00  0.00    -0.612 N 
ATOM      6  C   UNL     1      47.247  22.464  21.630  0.00  0.00    +0.266 C 
ATOM      7  C   UNL     1      48.003  21.232  22.189  0.00  0.00    +0.090 C 
ATOM      8  C   UNL     1      47.276  20.065  21.555  0.00  0.00    -0.143 C 
ATOM      9  C   UNL     1      47.694  18.912  21.148  0.00  0.00    +0.013 C 
ATOM     10  C   UNL     1      46.752  17.960  20.460  0.00  0.00    +0.135 C 
ATOM     11  C   UNL     1      45.525  18.662  19.965  0.00  0.00    +0.019 C 
ATOM     12  C   UNL     1      45.837  20.551  21.510  0.00  0.00    +0.308 C 
ATOM     13  O   UNL     1      45.095  23.868  20.329  0.00  0.00    -0.525 OA
ATOM     14  C   UNL     1      42.745  22.614  19.424  0.00  0.00    +0.124 A 
ATOM     15  C   UNL     1      41.730  21.866  18.849  0.00  0.00    +0.022 A 
ATOM     16  O   UNL     1      40.557  22.272  18.309  0.00  0.00    -0.300 OA
ATOM     17  C   UNL     1      39.741  21.087  18.223  0.00  0.00    +0.439 C 
ATOM     18  O   UNL     1      40.695  20.007  18.140  0.00  0.00    -0.300 OA
ATOM     19  C   UNL     1      45.118  19.835  20.390  0.00  0.00    -0.112 C 
ATOM     20  C   UNL     1      41.811  20.464  18.749  0.00  0.00    +0.065 A 
ENDROOT
TORSDOF 0
ENDMDL
MODEL 3
REMARK VINA RESULT:      -5.8     22.333     24.232
REMARK  Name = ZINC95486373
REMARK  0 active torsions:
REMARK  status: ('A' for Active; 'I' for Inactive)
REMARK                            x       y       z     vdW  Elec       q    Type
REMARK                         _______ _______ _______ _____ _____    ______ ____
ROOT
ATOM      1  C   UNL     1      56.941  32.931   4.858  0.00  0.00    +0.052 A 
ATOM      2  C   UNL     1      55.561  32.864   4.672  0.00  0.00    +0.001 A 
ATOM      3  C   UNL     1      54.995  32.130   3.606  0.00  0.00    -0.126 A 
ATOM      4  C   UNL     1      53.528  32.152   3.415  0.00  0.00    +0.586 C 
ATOM      5  N   UNL     1      52.754  32.622   4.413  0.00  0.00    -0.612 N 
ATOM      6  C   UNL     1      51.318  32.926   4.374  0.00  0.00    +0.266 C 
ATOM      7  C   UNL     1      50.971  33.612   5.719  0.00  0.00    +0.090 C 
ATOM      8  C   UNL     1      52.318  34.084   6.222  0.00  0.00    -0.143 C 
ATOM      9  C   UNL     1      52.664  35.128   6.901  0.00  0.00    +0.013 C 
ATOM     10  C   UNL     1      54.116  35.401   7.192  0.00  0.00    +0.135 C 
ATOM     11  C   UNL     1      55.015  34.620   6.284  0.00  0.00    +0.019 C 
ATOM     12  C   UNL     1      53.256  32.984   5.752  0.00  0.00    +0.308 C 
ATOM     13  O   UNL     1      53.031  31.750   2.379  0.00  0.00    -0.525 OA
ATOM     14  C   UNL     1      55.803  31.410   2.718  0.00  0.00    +0.124 A 
ATOM     15  C   UNL     1      57.173  31.474   2.914  0.00  0.00    +0.022 A 
ATOM     16  O   UNL     1      58.174  30.890   2.214  0.00  0.00    -0.300 OA
ATOM     17  C   UNL     1      59.337  30.970   3.064  0.00  0.00    +0.439 C 
ATOM     18  O   UNL     1      59.081  32.114   3.905  0.00  0.00    -0.300 OA
ATOM     19  C   UNL     1      54.644  33.563   5.601  0.00  0.00    -0.112 C 
ATOM     20  C   UNL     1      57.735  32.226   3.963  0.00  0.00    +0.065 A 
ENDROOT
TORSDOF 0
ENDMDL
MODEL 4
REMARK VINA RESULT:      -5.7      5.840      8.687
REMARK  Name = ZINC95486373
REMARK  0 active torsions:
REMARK  status: ('A' for Active; 'I' for Inactive)
REMARK                            x       y       z     vdW  Elec       q    Type
REMARK                         _______ _______ _______ _____ _____    ______ ____
ROOT
ATOM      1  C   UNL     1      51.511  15.770  16.362  0.00  0.00    +0.052 A 
ATOM      2  C   UNL     1      50.817  16.731  17.095  0.00  0.00    +0.001 A 
ATOM      3  C   UNL     1      49.719  16.384  17.914  0.00  0.00    -0.126 A 
ATOM      4  C   UNL     1      48.976  17.453  18.615  0.00  0.00    +0.586 C 
ATOM      5  N   UNL     1      49.527  18.681  18.689  0.00  0.00    -0.612 N 
ATOM      6  C   UNL     1      48.897  19.926  19.146  0.00  0.00    +0.266 C 
ATOM      7  C   UNL     1      49.904  21.068  18.852  0.00  0.00    +0.090 C 
ATOM      8  C   UNL     1      50.823  20.458  17.815  0.00  0.00    -0.143 C 
ATOM      9  C   UNL     1      51.441  20.975  16.805  0.00  0.00    +0.013 C 
ATOM     10  C   UNL     1      52.232  20.102  15.867  0.00  0.00    +0.135 C 
ATOM     11  C   UNL     1      51.851  18.661  16.005  0.00  0.00    +0.019 C 
ATOM     12  C   UNL     1      50.897  19.003  18.247  0.00  0.00    +0.308 C 
ATOM     13  O   UNL     1      47.890  17.229  19.116  0.00  0.00    -0.525 OA
ATOM     14  C   UNL     1      49.313  15.050  18.047  0.00  0.00    +0.124 A 
ATOM     15  C   UNL     1      50.014  14.099  17.323  0.00  0.00    +0.022 A 
ATOM     16  O   UNL     1      49.837  12.759  17.259  0.00  0.00    -0.300 OA
ATOM     17  C   UNL     1      51.051  12.236  16.683  0.00  0.00    +0.439 C 
ATOM     18  O   UNL     1      51.573  13.333  15.904  0.00  0.00    -0.300 OA
ATOM     19  C   UNL     1      51.221  18.154  17.039  0.00  0.00    -0.112 C 
ATOM     20  C   UNL     1      51.092  14.452  16.488  0.00  0.00    +0.065 A 
ENDROOT
TORSDOF 0
ENDMDL
MODEL 5
REMARK VINA RESULT:      -5.6      1.590      2.278
REMARK  Name = ZINC95486373
REMARK  0 active torsions:
REMARK  status: ('A' for Active; 'I' for Inactive)
REMARK                            x       y       z     vdW  Elec       q    Type
REMARK                         _______ _______ _______ _____ _____    ______ ____
ROOT
ATOM      1  C   UNL     1      44.787  20.973  19.088  0.00  0.00    +0.052 A 
ATOM      2  C   UNL     1      45.470  19.767  19.245  0.00  0.00    +0.001 A 
ATOM      3  C   UNL     1      44.796  18.581  19.614  0.00  0.00    -0.126 A 
ATOM      4  C   UNL     1      45.580  17.346  19.836  0.00  0.00    +0.586 C 
ATOM      5  N   UNL     1      46.857  17.306  19.406  0.00  0.00    -0.612 N 
ATOM      6  C   UNL     1      47.872  16.285  19.692  0.00  0.00    +0.266 C 
ATOM      7  C   UNL     1      49.210  16.815  19.117  0.00  0.00    +0.090 C 
ATOM      8  C   UNL     1      48.961  18.301  18.978  0.00  0.00    -0.143 C 
ATOM      9  C   UNL     1      49.744  19.319  19.114  0.00  0.00    +0.013 C 
ATOM     10  C   UNL     1      49.200  20.720  19.006  0.00  0.00    +0.135 C 
ATOM     11  C   UNL     1      47.710  20.744  19.162  0.00  0.00    +0.019 C 
ATOM     12  C   UNL     1      47.492  18.360  18.593  0.00  0.00    +0.308 C 
ATOM     13  O   UNL     1      45.080  16.386  20.392  0.00  0.00    -0.525 OA
ATOM     14  C   UNL     1      43.408  18.569  19.797  0.00  0.00    +0.124 A 
ATOM     15  C   UNL     1      42.736  19.769  19.630  0.00  0.00    +0.022 A 
ATOM     16  O   UNL     1      41.416  20.043  19.749  0.00  0.00    -0.300 OA
ATOM     17  C   UNL     1      41.227  21.318  19.101  0.00  0.00    +0.439 C 
ATOM     18  O   UNL     1      42.515  21.959  19.203  0.00  0.00    -0.300 OA
ATOM     19  C   UNL     1      46.931  19.697  19.021  0.00  0.00    -0.112 C 
ATOM     20  C   UNL     1      43.414  20.954  19.287  0.00  0.00    +0.065 A 
ENDROOT
TORSDOF 0
ENDMDL
MODEL 6
REMARK VINA RESULT:      -5.6      4.114      6.728
REMARK  Name = ZINC95486373
REMARK  0 active torsions:
REMARK  status: ('A' for Active; 'I' for Inactive)
REMARK                            x       y       z     vdW  Elec       q    Type
REMARK                         _______ _______ _______ _____ _____    ______ ____
ROOT
ATOM      1  C   UNL     1      49.181  20.851  18.845  0.00  0.00    +0.052 A 
ATOM      2  C   UNL     1      48.289  19.799  19.052  0.00  0.00    +0.001 A 
ATOM      3  C   UNL     1      48.704  18.452  18.966  0.00  0.00    -0.126 A 
ATOM      4  C   UNL     1      47.701  17.376  19.126  0.00  0.00    +0.586 C 
ATOM      5  N   UNL     1      46.491  17.691  19.629  0.00  0.00    -0.612 N 
ATOM      6  C   UNL     1      45.290  16.848  19.684  0.00  0.00    +0.266 C 
ATOM      7  C   UNL     1      44.134  17.752  20.182  0.00  0.00    +0.090 C 
ATOM      8  C   UNL     1      44.649  19.150  19.911  0.00  0.00    -0.143 C 
ATOM      9  C   UNL     1      44.042  20.235  19.561  0.00  0.00    +0.013 C 
ATOM     10  C   UNL     1      44.826  21.486  19.264  0.00  0.00    +0.135 C 
ATOM     11  C   UNL     1      46.271  21.182  19.015  0.00  0.00    +0.019 C 
ATOM     12  C   UNL     1      46.139  19.016  20.175  0.00  0.00    +0.308 C 
ATOM     13  O   UNL     1      47.964  16.231  18.811  0.00  0.00    -0.525 OA
ATOM     14  C   UNL     1      50.041  18.126  18.707  0.00  0.00    +0.124 A 
ATOM     15  C   UNL     1      50.924  19.176  18.511  0.00  0.00    +0.022 A 
ATOM     16  O   UNL     1      52.249  19.151  18.243  0.00  0.00    -0.300 OA
ATOM     17  C   UNL     1      52.725  20.484  18.521  0.00  0.00    +0.439 C 
ATOM     18  O   UNL     1      51.562  21.318  18.335  0.00  0.00    -0.300 OA
ATOM     19  C   UNL     1      46.870  20.071  19.377  0.00  0.00    -0.112 C 
ATOM     20  C   UNL     1      50.500  20.517  18.574  0.00  0.00    +0.065 A 
ENDROOT
TORSDOF 0
ENDMDL
MODEL 7
REMARK VINA RESULT:      -5.4      4.673      6.659
REMARK  Name = ZINC95486373
REMARK  0 active torsions:
REMARK  status: ('A' for Active; 'I' for Inactive)
REMARK                            x       y       z     vdW  Elec       q    Type
REMARK                         _______ _______ _______ _____ _____    ______ ____
ROOT
ATOM      1  C   UNL     1      48.495  16.036  17.255  0.00  0.00    +0.052 A 
ATOM      2  C   UNL     1      48.808  17.279  17.805  0.00  0.00    +0.001 A 
ATOM      3  C   UNL     1      47.969  17.895  18.759  0.00  0.00    -0.126 A 
ATOM      4  C   UNL     1      48.313  19.245  19.257  0.00  0.00    +0.586 C 
ATOM      5  N   UNL     1      49.548  19.727  19.015  0.00  0.00    -0.612 N 
ATOM      6  C   UNL     1      50.041  21.094  19.228  0.00  0.00    +0.266 C 
ATOM      7  C   UNL     1      51.462  21.155  18.613  0.00  0.00    +0.090 C 
ATOM      8  C   UNL     1      51.483  19.969  17.673  0.00  0.00    -0.143 C 
ATOM      9  C   UNL     1      52.058  19.788  16.531  0.00  0.00    +0.013 C 
ATOM     10  C   UNL     1      51.831  18.518  15.755  0.00  0.00    +0.135 C 
ATOM     11  C   UNL     1      50.616  17.788  16.238  0.00  0.00    +0.019 C 
ATOM     12  C   UNL     1      50.641  18.941  18.412  0.00  0.00    +0.308 C 
ATOM     13  O   UNL     1      47.498  19.905  19.874  0.00  0.00    -0.525 OA
ATOM     14  C   UNL     1      46.808  17.259  19.216  0.00  0.00    +0.124 A 
ATOM     15  C   UNL     1      46.508  16.020  18.672  0.00  0.00    +0.022 A 
ATOM     16  O   UNL     1      45.464  15.197  18.921  0.00  0.00    -0.300 OA
ATOM     17  C   UNL     1      45.848  13.913  18.389  0.00  0.00    +0.439 C 
ATOM     18  O   UNL     1      46.795  14.232  17.348  0.00  0.00    -0.300 OA
ATOM     19  C   UNL     1      50.044  17.987  17.403  0.00  0.00    -0.112 C 
ATOM     20  C   UNL     1      47.335  15.420  17.702  0.00  0.00    +0.065 A 
ENDROOT
TORSDOF 0
ENDMDL
MODEL 8
REMARK VINA RESULT:      -5.4     22.231     24.447
REMARK  Name = ZINC95486373
REMARK  0 active torsions:
REMARK  status: ('A' for Active; 'I' for Inactive)
REMARK                            x       y       z     vdW  Elec       q    Type
REMARK                         _______ _______ _______ _____ _____    ______ ____
ROOT
ATOM      1  C   UNL     1      55.632  31.790   2.113  0.00  0.00    +0.052 A 
ATOM      2  C   UNL     1      54.447  32.212   2.714  0.00  0.00    +0.001 A 
ATOM      3  C   UNL     1      53.239  32.296   1.985  0.00  0.00    -0.126 A 
ATOM      4  C   UNL     1      52.028  32.817   2.655  0.00  0.00    +0.586 C 
ATOM      5  N   UNL     1      52.029  32.924   3.998  0.00  0.00    -0.612 N 
ATOM      6  C   UNL     1      51.037  33.594   4.850  0.00  0.00    +0.266 C 
ATOM      7  C   UNL     1      51.611  33.587   6.290  0.00  0.00    +0.090 C 
ATOM      8  C   UNL     1      53.089  33.350   6.071  0.00  0.00    -0.143 C 
ATOM      9  C   UNL     1      54.131  33.776   6.706  0.00  0.00    +0.013 C 
ATOM     10  C   UNL     1      55.514  33.452   6.207  0.00  0.00    +0.135 C 
ATOM     11  C   UNL     1      55.492  33.009   4.776  0.00  0.00    +0.019 C 
ATOM     12  C   UNL     1      53.106  32.418   4.870  0.00  0.00    +0.308 C 
ATOM     13  O   UNL     1      51.050  33.139   2.006  0.00  0.00    -0.525 OA
ATOM     14  C   UNL     1      53.184  31.918   0.638  0.00  0.00    +0.124 A 
ATOM     15  C   UNL     1      54.363  31.491   0.050  0.00  0.00    +0.022 A 
ATOM     16  O   UNL     1      54.597  31.080  -1.218  0.00  0.00    -0.300 OA
ATOM     17  C   UNL     1      55.868  30.400  -1.175  0.00  0.00    +0.439 C 
ATOM     18  O   UNL     1      56.548  30.995  -0.051  0.00  0.00    -0.300 OA
ATOM     19  C   UNL     1      54.423  32.581   4.147  0.00  0.00    -0.112 C 
ATOM     20  C   UNL     1      55.570  31.433   0.773  0.00  0.00    +0.065 A 
ENDROOT
TORSDOF 0
ENDMDL
MODEL 9
REMARK VINA RESULT:      -5.3     22.168     23.984
REMARK  Name = ZINC95486373
REMARK  0 active torsions:
REMARK  status: ('A' for Active; 'I' for Inactive)
REMARK                            x       y       z     vdW  Elec       q    Type
REMARK                         _______ _______ _______ _____ _____    ______ ____
ROOT
ATOM      1  C   UNL     1      53.783  31.951   1.353  0.00  0.00    +0.052 A 
ATOM      2  C   UNL     1      53.215  32.471   2.515  0.00  0.00    +0.001 A 
ATOM      3  C   UNL     1      51.855  32.851   2.566  0.00  0.00    -0.126 A 
ATOM      4  C   UNL     1      51.322  33.462   3.803  0.00  0.00    +0.586 C 
ATOM      5  N   UNL     1      52.054  33.378   4.931  0.00  0.00    -0.612 N 
ATOM      6  C   UNL     1      51.830  34.073   6.205  0.00  0.00    +0.266 C 
ATOM      7  C   UNL     1      53.060  33.771   7.099  0.00  0.00    +0.090 C 
ATOM      8  C   UNL     1      54.110  33.330   6.102  0.00  0.00    -0.143 C 
ATOM      9  C   UNL     1      55.393  33.488   6.081  0.00  0.00    +0.013 C 
ATOM     10  C   UNL     1      56.198  33.017   4.898  0.00  0.00    +0.135 C 
ATOM     11  C   UNL     1      55.332  32.790   3.698  0.00  0.00    +0.019 C 
ATOM     12  C   UNL     1      53.293  32.587   5.060  0.00  0.00    +0.308 C 
ATOM     13  O   UNL     1      50.244  34.026   3.802  0.00  0.00    -0.525 OA
ATOM     14  C   UNL     1      51.018  32.681   1.456  0.00  0.00    +0.124 A 
ATOM     15  C   UNL     1      51.588  32.155   0.307  0.00  0.00    +0.022 A 
ATOM     16  O   UNL     1      51.024  31.894  -0.895  0.00  0.00    -0.300 OA
ATOM     17  C   UNL     1      51.948  31.017  -1.572  0.00  0.00    +0.439 C 
ATOM     18  O   UNL     1      53.227  31.330  -0.983  0.00  0.00    -0.300 OA
ATOM     19  C   UNL     1      54.029  32.634   3.741  0.00  0.00    -0.112 C 
ATOM     20  C   UNL     1      52.950  31.801   0.253  0.00  0.00    +0.065 A 
ENDROOT
TORSDOF 0
ENDMDL
