MODEL 1
REMARK VINA RESULT:      -6.8      0.000      0.000
REMARK  Name = ZINC95486091
REMARK  11 active torsions:
REMARK  status: ('A' for Active; 'I' for Inactive)
REMARK    1  A    between atoms: C1_1  and  C2_2
REMARK    2  A    between atoms: C2_2  and  C30_40
REMARK    3  A    between atoms: C3_3  and  C4_4
REMARK    4  A    between atoms: C4_4  and  C5_5
REMARK    5  A    between atoms: C5_5  and  C6_6
REMARK    6  A    between atoms: C10_13  and  C28_36
REMARK    7  A    between atoms: C11_14  and  C27_35
REMARK    8  A    between atoms: C17_21  and  O2_34
REMARK    9  A    between atoms: C19_25  and  C26_33
REMARK   10  A    between atoms: C23_30  and  C24_31
REMARK   11  A    between atoms: C23_30  and  C25_32
REMARK                            x       y       z     vdW  Elec       q    Type
REMARK                         _______ _______ _______ _____ _____    ______ ____
ROOT
ATOM      7  C   UNL     1      50.806  19.972  17.757  0.00  0.00    -0.036 C 
ATOM      8  C   UNL     1      51.257  18.525  17.973  0.00  0.00    -0.030 C 
ATOM      9  C   UNL     1      51.533  18.160  16.463  0.00  0.00    +0.125 C 
ATOM     10  O   UNL     1      52.279  19.332  16.110  0.00  0.00    -0.316 OA
ATOM     11  C   UNL     1      51.697  16.719  16.402  0.00  0.00    +0.093 C 
ATOM     12  C   UNL     1      51.270  16.178  17.759  0.00  0.00    -0.011 C 
ATOM     13  C   UNL     1      52.460  15.947  18.573  0.00  0.00    +0.046 C 
ATOM     14  C   UNL     1      50.448  14.941  17.740  0.00  0.00    -0.067 C 
ATOM     15  C   UNL     1      50.578  14.029  16.835  0.00  0.00    -0.099 C 
ATOM     16  C   UNL     1      49.785  12.711  16.777  0.00  0.00    +0.203 C 
ATOM     19  C   UNL     1      48.654  12.677  17.936  0.00  0.00    +0.021 C 
ATOM     20  C   UNL     1      49.119  13.365  19.172  0.00  0.00    -0.044 C 
ATOM     21  C   UNL     1      50.458  12.724  19.672  0.00  0.00    +0.045 C 
ATOM     22  C   UNL     1      48.084  13.208  20.244  0.00  0.00    +0.053 C 
ATOM     23  C   UNL     1      46.797  13.957  19.764  0.00  0.00    +0.010 C 
ATOM     24  C   UNL     1      46.349  13.373  18.461  0.00  0.00    +0.375 C 
ATOM     25  O   UNL     1      45.161  13.146  18.260  0.00  0.00    -0.461 OA
ATOM     26  C   UNL     1      47.280  13.099  17.362  0.00  0.00    -0.097 C 
ATOM     27  C   UNL     1      47.387  14.282  16.415  0.00  0.00    +0.062 C 
ATOM     28  C   UNL     1      46.774  11.911  16.480  0.00  0.00    +0.054 C 
ATOM     29  C   UNL     1      49.347  14.904  18.873  0.00  0.00    +0.048 C 
ATOM     30  C   UNL     1      49.905  15.620  20.124  0.00  0.00    +0.051 C 
ATOM     31  C   UNL     1      50.087  17.068  19.754  0.00  0.00    +0.022 C 
ATOM     32  C   UNL     1      50.388  17.361  18.379  0.00  0.00    -0.025 C 
ATOM     33  C   UNL     1      49.042  17.477  17.601  0.00  0.00    +0.024 C 
ATOM     34  C   UNL     1      51.597  20.339  16.573  0.00  0.00    +0.503 C 
ATOM     35  O   UNL     1      51.547  21.453  16.104  0.00  0.00    -0.453 OA
ENDROOT
BRANCH  16  17
ATOM     17  O   UNL     1      50.649  11.672  16.911  0.00  0.00    -0.542 OA
ATOM     18  H   UNL     1      50.882  11.469  17.827  0.00  0.00    +0.384 HD
ENDBRANCH  16  17
BRANCH   7   6
ATOM      6  C   UNL     1      51.102  20.829  18.990  0.00  0.00    +0.057 C 
BRANCH   6   5
ATOM      5  C   UNL     1      49.895  20.803  19.931  0.00  0.00    +0.055 C 
BRANCH   5   4
ATOM      1  C   UNL     1      47.567  19.508  20.847  0.00  0.00    +0.074 C 
ATOM      2  C   UNL     1      47.543  20.270  19.547  0.00  0.00    -0.128 C 
ATOM      3  C   UNL     1      46.275  20.339  18.737  0.00  0.00    +0.072 C 
ATOM      4  C   UNL     1      48.626  20.871  19.120  0.00  0.00    -0.065 C 
ENDBRANCH   5   4
ENDBRANCH   6   5
ENDBRANCH   7   6
TORSDOF 4
ENDMDL
MODEL 2
REMARK VINA RESULT:      -6.4      3.428      7.203
REMARK  Name = ZINC95486091
REMARK  11 active torsions:
REMARK  status: ('A' for Active; 'I' for Inactive)
REMARK    1  A    between atoms: C1_1  and  C2_2
REMARK    2  A    between atoms: C2_2  and  C30_40
REMARK    3  A    between atoms: C3_3  and  C4_4
REMARK    4  A    between atoms: C4_4  and  C5_5
REMARK    5  A    between atoms: C5_5  and  C6_6
REMARK    6  A    between atoms: C10_13  and  C28_36
REMARK    7  A    between atoms: C11_14  and  C27_35
REMARK    8  A    between atoms: C17_21  and  O2_34
REMARK    9  A    between atoms: C19_25  and  C26_33
REMARK   10  A    between atoms: C23_30  and  C24_31
REMARK   11  A    between atoms: C23_30  and  C25_32
REMARK                            x       y       z     vdW  Elec       q    Type
REMARK                         _______ _______ _______ _____ _____    ______ ____
ROOT
ATOM      7  C   UNL     1      44.335  19.986  21.157  0.00  0.00    -0.036 C 
ATOM      8  C   UNL     1      45.331  19.443  20.130  0.00  0.00    -0.030 C 
ATOM      9  C   UNL     1      45.303  17.932  20.584  0.00  0.00    +0.125 C 
ATOM     10  O   UNL     1      43.881  17.781  20.683  0.00  0.00    -0.316 OA
ATOM     11  C   UNL     1      46.413  17.272  19.920  0.00  0.00    +0.093 C 
ATOM     12  C   UNL     1      47.260  18.374  19.299  0.00  0.00    -0.011 C 
ATOM     13  C   UNL     1      46.918  18.496  17.885  0.00  0.00    +0.046 C 
ATOM     14  C   UNL     1      48.731  18.219  19.431  0.00  0.00    -0.067 C 
ATOM     15  C   UNL     1      49.314  17.067  19.453  0.00  0.00    -0.099 C 
ATOM     16  C   UNL     1      50.833  16.837  19.551  0.00  0.00    +0.203 C 
ATOM     19  C   UNL     1      51.608  18.242  19.763  0.00  0.00    +0.021 C 
ATOM     20  C   UNL     1      50.936  19.352  19.030  0.00  0.00    -0.044 C 
ATOM     21  C   UNL     1      50.818  18.996  17.509  0.00  0.00    +0.045 C 
ATOM     22  C   UNL     1      51.752  20.601  19.168  0.00  0.00    +0.053 C 
ATOM     23  C   UNL     1      51.754  20.992  20.682  0.00  0.00    +0.010 C 
ATOM     24  C   UNL     1      52.322  19.860  21.479  0.00  0.00    +0.375 C 
ATOM     25  O   UNL     1      53.121  20.079  22.382  0.00  0.00    -0.461 OA
ATOM     26  C   UNL     1      51.918  18.468  21.262  0.00  0.00    -0.097 C 
ATOM     27  C   UNL     1      50.756  18.078  22.159  0.00  0.00    +0.062 C 
ATOM     28  C   UNL     1      53.074  17.483  21.637  0.00  0.00    +0.054 C 
ATOM     29  C   UNL     1      49.490  19.590  19.633  0.00  0.00    +0.048 C 
ATOM     30  C   UNL     1      48.747  20.685  18.833  0.00  0.00    +0.051 C 
ATOM     31  C   UNL     1      47.393  20.848  19.472  0.00  0.00    +0.022 C 
ATOM     32  C   UNL     1      46.818  19.689  20.098  0.00  0.00    -0.025 C 
ATOM     33  C   UNL     1      47.345  19.616  21.564  0.00  0.00    +0.024 C 
ATOM     34  C   UNL     1      43.460  18.819  21.346  0.00  0.00    +0.503 C 
ATOM     35  O   UNL     1      42.497  18.866  22.077  0.00  0.00    -0.453 OA
ENDROOT
BRANCH  16  17
ATOM     17  O   UNL     1      51.257  16.214  18.421  0.00  0.00    -0.542 OA
ATOM     18  H   UNL     1      51.279  15.250  18.488  0.00  0.00    +0.384 HD
ENDBRANCH  16  17
BRANCH   7   6
ATOM      6  C   UNL     1      43.612  21.223  20.620  0.00  0.00    +0.057 C 
BRANCH   6   5
ATOM      5  C   UNL     1      43.173  20.971  19.176  0.00  0.00    +0.055 C 
BRANCH   5   4
ATOM      1  C   UNL     1      40.902  19.340  18.840  0.00  0.00    +0.074 C 
ATOM      2  C   UNL     1      40.766  20.839  18.790  0.00  0.00    -0.128 C 
ATOM      3  C   UNL     1      39.415  21.467  18.560  0.00  0.00    +0.072 C 
ATOM      4  C   UNL     1      41.822  21.598  18.946  0.00  0.00    -0.065 C 
ENDBRANCH   5   4
ENDBRANCH   6   5
ENDBRANCH   7   6
TORSDOF 4
ENDMDL
MODEL 3
REMARK VINA RESULT:      -5.9      2.387      4.541
REMARK  Name = ZINC95486091
REMARK  11 active torsions:
REMARK  status: ('A' for Active; 'I' for Inactive)
REMARK    1  A    between atoms: C1_1  and  C2_2
REMARK    2  A    between atoms: C2_2  and  C30_40
REMARK    3  A    between atoms: C3_3  and  C4_4
REMARK    4  A    between atoms: C4_4  and  C5_5
REMARK    5  A    between atoms: C5_5  and  C6_6
REMARK    6  A    between atoms: C10_13  and  C28_36
REMARK    7  A    between atoms: C11_14  and  C27_35
REMARK    8  A    between atoms: C17_21  and  O2_34
REMARK    9  A    between atoms: C19_25  and  C26_33
REMARK   10  A    between atoms: C23_30  and  C24_31
REMARK   11  A    between atoms: C23_30  and  C25_32
REMARK                            x       y       z     vdW  Elec       q    Type
REMARK                         _______ _______ _______ _____ _____    ______ ____
ROOT
ATOM      7  C   UNL     1      47.700  19.564  20.105  0.00  0.00    -0.036 C 
ATOM      8  C   UNL     1      47.360  18.479  19.080  0.00  0.00    -0.030 C 
ATOM      9  C   UNL     1      46.150  17.826  19.854  0.00  0.00    +0.125 C 
ATOM     10  O   UNL     1      45.463  19.035  20.202  0.00  0.00    -0.316 OA
ATOM     11  C   UNL     1      45.852  16.571  19.188  0.00  0.00    +0.093 C 
ATOM     12  C   UNL     1      46.996  16.316  18.216  0.00  0.00    -0.011 C 
ATOM     13  C   UNL     1      46.588  16.741  16.881  0.00  0.00    +0.046 C 
ATOM     14  C   UNL     1      47.497  14.920  18.150  0.00  0.00    -0.067 C 
ATOM     15  C   UNL     1      46.735  13.894  18.334  0.00  0.00    -0.099 C 
ATOM     16  C   UNL     1      47.181  12.423  18.243  0.00  0.00    +0.203 C 
ATOM     19  C   UNL     1      48.781  12.328  18.019  0.00  0.00    +0.021 C 
ATOM     20  C   UNL     1      49.282  13.448  17.174  0.00  0.00    -0.044 C 
ATOM     21  C   UNL     1      48.521  13.468  15.805  0.00  0.00    +0.045 C 
ATOM     22  C   UNL     1      50.743  13.251  16.906  0.00  0.00    +0.053 C 
ATOM     23  C   UNL     1      51.486  13.350  18.279  0.00  0.00    +0.010 C 
ATOM     24  C   UNL     1      50.940  12.311  19.207  0.00  0.00    +0.375 C 
ATOM     25  O   UNL     1      51.697  11.646  19.906  0.00  0.00    -0.461 OA
ATOM     26  C   UNL     1      49.502  12.079  19.366  0.00  0.00    -0.097 C 
ATOM     27  C   UNL     1      48.923  12.914  20.495  0.00  0.00    +0.062 C 
ATOM     28  C   UNL     1      49.214  10.594  19.765  0.00  0.00    +0.054 C 
ATOM     29  C   UNL     1      49.058  14.825  17.926  0.00  0.00    +0.048 C 
ATOM     30  C   UNL     1      49.499  16.005  17.030  0.00  0.00    +0.051 C 
ATOM     31  C   UNL     1      49.257  17.265  17.820  0.00  0.00    +0.022 C 
ATOM     32  C   UNL     1      48.175  17.249  18.766  0.00  0.00    -0.025 C 
ATOM     33  C   UNL     1      48.715  16.677  20.112  0.00  0.00    +0.024 C 
ATOM     34  C   UNL     1      46.373  19.835  20.678  0.00  0.00    +0.503 C 
ATOM     35  O   UNL     1      46.213  20.688  21.521  0.00  0.00    -0.453 OA
ENDROOT
BRANCH  16  17
ATOM     17  O   UNL     1      46.511  11.823  17.226  0.00  0.00    -0.542 OA
ATOM     18  H   UNL     1      46.258  12.423  16.512  0.00  0.00    +0.384 HD
ENDBRANCH  16  17
BRANCH   7   6
ATOM      6  C   UNL     1      48.342  20.777  19.428  0.00  0.00    +0.057 C 
BRANCH   6   5
ATOM      5  C   UNL     1      49.859  20.585  19.373  0.00  0.00    +0.055 C 
BRANCH   5   4
ATOM      1  C   UNL     1      52.202  19.394  18.361  0.00  0.00    +0.074 C 
ATOM      2  C   UNL     1      51.452  20.404  17.532  0.00  0.00    -0.128 C 
ATOM      3  C   UNL     1      51.955  20.777  16.161  0.00  0.00    +0.072 C 
ATOM      4  C   UNL     1      50.363  20.958  18.002  0.00  0.00    -0.065 C 
ENDBRANCH   5   4
ENDBRANCH   6   5
ENDBRANCH   7   6
TORSDOF 4
ENDMDL
MODEL 4
REMARK VINA RESULT:      -5.9      1.607      2.241
REMARK  Name = ZINC95486091
REMARK  11 active torsions:
REMARK  status: ('A' for Active; 'I' for Inactive)
REMARK    1  A    between atoms: C1_1  and  C2_2
REMARK    2  A    between atoms: C2_2  and  C30_40
REMARK    3  A    between atoms: C3_3  and  C4_4
REMARK    4  A    between atoms: C4_4  and  C5_5
REMARK    5  A    between atoms: C5_5  and  C6_6
REMARK    6  A    between atoms: C10_13  and  C28_36
REMARK    7  A    between atoms: C11_14  and  C27_35
REMARK    8  A    between atoms: C17_21  and  O2_34
REMARK    9  A    between atoms: C19_25  and  C26_33
REMARK   10  A    between atoms: C23_30  and  C24_31
REMARK   11  A    between atoms: C23_30  and  C25_32
REMARK                            x       y       z     vdW  Elec       q    Type
REMARK                         _______ _______ _______ _____ _____    ______ ____
ROOT
ATOM      7  C   UNL     1      51.576  19.322  17.527  0.00  0.00    -0.036 C 
ATOM      8  C   UNL     1      51.605  17.861  17.981  0.00  0.00    -0.030 C 
ATOM      9  C   UNL     1      51.228  17.201  16.599  0.00  0.00    +0.125 C 
ATOM     10  O   UNL     1      52.132  17.943  15.771  0.00  0.00    -0.316 OA
ATOM     11  C   UNL     1      50.909  15.810  16.869  0.00  0.00    +0.093 C 
ATOM     12  C   UNL     1      50.822  15.674  18.383  0.00  0.00    -0.011 C 
ATOM     13  C   UNL     1      52.084  15.139  18.885  0.00  0.00    +0.046 C 
ATOM     14  C   UNL     1      49.703  14.845  18.901  0.00  0.00    -0.067 C 
ATOM     15  C   UNL     1      49.232  13.828  18.260  0.00  0.00    -0.099 C 
ATOM     16  C   UNL     1      48.101  12.908  18.756  0.00  0.00    +0.203 C 
ATOM     19  C   UNL     1      47.477  13.470  20.140  0.00  0.00    +0.021 C 
ATOM     20  C   UNL     1      48.520  14.109  20.989  0.00  0.00    -0.044 C 
ATOM     21  C   UNL     1      49.683  13.096  21.265  0.00  0.00    +0.045 C 
ATOM     22  C   UNL     1      47.914  14.510  22.300  0.00  0.00    +0.053 C 
ATOM     23  C   UNL     1      46.838  15.605  22.000  0.00  0.00    +0.010 C 
ATOM     24  C   UNL     1      45.819  15.045  21.058  0.00  0.00    +0.375 C 
ATOM     25  O   UNL     1      44.625  15.251  21.244  0.00  0.00    -0.461 OA
ATOM     26  C   UNL     1      46.191  14.285  19.861  0.00  0.00    -0.097 C 
ATOM     27  C   UNL     1      46.330  15.188  18.648  0.00  0.00    +0.062 C 
ATOM     28  C   UNL     1      45.077  13.255  19.481  0.00  0.00    +0.054 C 
ATOM     29  C   UNL     1      49.096  15.390  20.254  0.00  0.00    +0.048 C 
ATOM     30  C   UNL     1      50.236  16.021  21.086  0.00  0.00    +0.051 C 
ATOM     31  C   UNL     1      50.718  17.225  20.320  0.00  0.00    +0.022 C 
ATOM     32  C   UNL     1      50.611  17.179  18.887  0.00  0.00    -0.025 C 
ATOM     33  C   UNL     1      49.186  17.672  18.490  0.00  0.00    +0.024 C 
ATOM     34  C   UNL     1      51.992  19.188  16.123  0.00  0.00    +0.503 C 
ATOM     35  O   UNL     1      52.132  20.158  15.413  0.00  0.00    -0.453 OA
ENDROOT
BRANCH  16  17
ATOM     17  O   UNL     1      48.595  11.654  18.919  0.00  0.00    -0.542 OA
ATOM     18  H   UNL     1      49.274  11.411  18.275  0.00  0.00    +0.384 HD
ENDBRANCH  16  17
BRANCH   7   6
ATOM      6  C   UNL     1      52.520  20.179  18.374  0.00  0.00    +0.057 C 
BRANCH   6   5
ATOM      5  C   UNL     1      51.729  21.315  19.026  0.00  0.00    +0.055 C 
BRANCH   5   4
ATOM      1  C   UNL     1      48.997  20.935  19.594  0.00  0.00    +0.074 C 
ATOM      2  C   UNL     1      50.027  20.720  20.672  0.00  0.00    -0.128 C 
ATOM      3  C   UNL     1      49.597  20.302  22.055  0.00  0.00    +0.072 C 
ATOM      4  C   UNL     1      51.298  20.897  20.409  0.00  0.00    -0.065 C 
ENDBRANCH   5   4
ENDBRANCH   6   5
ENDBRANCH   7   6
TORSDOF 4
ENDMDL
MODEL 5
REMARK VINA RESULT:      -5.7      3.568      6.141
REMARK  Name = ZINC95486091
REMARK  11 active torsions:
REMARK  status: ('A' for Active; 'I' for Inactive)
REMARK    1  A    between atoms: C1_1  and  C2_2
REMARK    2  A    between atoms: C2_2  and  C30_40
REMARK    3  A    between atoms: C3_3  and  C4_4
REMARK    4  A    between atoms: C4_4  and  C5_5
REMARK    5  A    between atoms: C5_5  and  C6_6
REMARK    6  A    between atoms: C10_13  and  C28_36
REMARK    7  A    between atoms: C11_14  and  C27_35
REMARK    8  A    between atoms: C17_21  and  O2_34
REMARK    9  A    between atoms: C19_25  and  C26_33
REMARK   10  A    between atoms: C23_30  and  C24_31
REMARK   11  A    between atoms: C23_30  and  C25_32
REMARK                            x       y       z     vdW  Elec       q    Type
REMARK                         _______ _______ _______ _____ _____    ______ ____
ROOT
ATOM      7  C   UNL     1      45.157  21.051  20.418  0.00  0.00    -0.036 C 
ATOM      8  C   UNL     1      45.167  19.520  20.386  0.00  0.00    -0.030 C 
ATOM      9  C   UNL     1      45.607  19.280  21.882  0.00  0.00    +0.125 C 
ATOM     10  O   UNL     1      44.701  20.198  22.505  0.00  0.00    -0.316 OA
ATOM     11  C   UNL     1      45.967  17.878  21.994  0.00  0.00    +0.093 C 
ATOM     12  C   UNL     1      46.015  17.330  20.575  0.00  0.00    -0.011 C 
ATOM     13  C   UNL     1      44.759  16.643  20.287  0.00  0.00    +0.046 C 
ATOM     14  C   UNL     1      47.147  16.419  20.265  0.00  0.00    -0.067 C 
ATOM     15  C   UNL     1      47.672  15.632  21.143  0.00  0.00    -0.099 C 
ATOM     16  C   UNL     1      48.820  14.641  20.879  0.00  0.00    +0.203 C 
ATOM     19  C   UNL     1      49.384  14.813  19.371  0.00  0.00    +0.021 C 
ATOM     20  C   UNL     1      48.295  15.164  18.418  0.00  0.00    -0.044 C 
ATOM     21  C   UNL     1      47.162  14.084  18.476  0.00  0.00    +0.045 C 
ATOM     22  C   UNL     1      48.849  15.202  17.026  0.00  0.00    +0.053 C 
ATOM     23  C   UNL     1      49.894  16.364  16.971  0.00  0.00    +0.010 C 
ATOM     24  C   UNL     1      50.958  16.114  17.992  0.00  0.00    +0.375 C 
ATOM     25  O   UNL     1      52.138  16.292  17.712  0.00  0.00    -0.461 OA
ATOM     26  C   UNL     1      50.648  15.707  19.365  0.00  0.00    -0.097 C 
ATOM     27  C   UNL     1      50.512  16.907  20.286  0.00  0.00    +0.062 C 
ATOM     28  C   UNL     1      51.808  14.852  19.973  0.00  0.00    +0.054 C 
ATOM     29  C   UNL     1      47.696  16.583  18.791  0.00  0.00    +0.048 C 
ATOM     30  C   UNL     1      46.511  16.929  17.861  0.00  0.00    +0.051 C 
ATOM     31  C   UNL     1      46.009  18.285  18.282  0.00  0.00    +0.022 C 
ATOM     32  C   UNL     1      46.158  18.640  19.667  0.00  0.00    -0.025 C 
ATOM     33  C   UNL     1      47.575  19.262  19.859  0.00  0.00    +0.024 C 
ATOM     34  C   UNL     1      44.787  21.301  21.819  0.00  0.00    +0.503 C 
ATOM     35  O   UNL     1      44.633  22.426  22.238  0.00  0.00    -0.453 OA
ENDROOT
BRANCH  16  17
ATOM     17  O   UNL     1      48.367  13.378  21.087  0.00  0.00    -0.542 OA
ATOM     18  H   UNL     1      47.471  13.335  21.448  0.00  0.00    +0.384 HD
ENDBRANCH  16  17
BRANCH   7   6
ATOM      6  C   UNL     1      44.160  21.614  19.403  0.00  0.00    +0.057 C 
BRANCH   6   5
ATOM      5  C   UNL     1      43.161  20.524  19.010  0.00  0.00    +0.055 C 
BRANCH   5   4
ATOM      1  C   UNL     1      40.732  19.660  20.144  0.00  0.00    +0.074 C 
ATOM      2  C   UNL     1      40.733  20.760  19.115  0.00  0.00    -0.128 C 
ATOM      3  C   UNL     1      39.435  21.399  18.693  0.00  0.00    +0.072 C 
ATOM      4  C   UNL     1      41.862  21.162  18.587  0.00  0.00    -0.065 C 
ENDBRANCH   5   4
ENDBRANCH   6   5
ENDBRANCH   7   6
TORSDOF 4
ENDMDL
MODEL 6
REMARK VINA RESULT:      -5.7      1.254      2.011
REMARK  Name = ZINC95486091
REMARK  11 active torsions:
REMARK  status: ('A' for Active; 'I' for Inactive)
REMARK    1  A    between atoms: C1_1  and  C2_2
REMARK    2  A    between atoms: C2_2  and  C30_40
REMARK    3  A    between atoms: C3_3  and  C4_4
REMARK    4  A    between atoms: C4_4  and  C5_5
REMARK    5  A    between atoms: C5_5  and  C6_6
REMARK    6  A    between atoms: C10_13  and  C28_36
REMARK    7  A    between atoms: C11_14  and  C27_35
REMARK    8  A    between atoms: C17_21  and  O2_34
REMARK    9  A    between atoms: C19_25  and  C26_33
REMARK   10  A    between atoms: C23_30  and  C24_31
REMARK   11  A    between atoms: C23_30  and  C25_32
REMARK                            x       y       z     vdW  Elec       q    Type
REMARK                         _______ _______ _______ _____ _____    ______ ____
ROOT
ATOM      7  C   UNL     1      50.695  20.105  17.425  0.00  0.00    -0.036 C 
ATOM      8  C   UNL     1      51.199  18.696  17.747  0.00  0.00    -0.030 C 
ATOM      9  C   UNL     1      51.586  18.268  16.278  0.00  0.00    +0.125 C 
ATOM     10  O   UNL     1      52.297  19.455  15.906  0.00  0.00    -0.316 OA
ATOM     11  C   UNL     1      51.821  16.835  16.305  0.00  0.00    +0.093 C 
ATOM     12  C   UNL     1      51.335  16.345  17.662  0.00  0.00    -0.011 C 
ATOM     13  C   UNL     1      52.481  16.216  18.558  0.00  0.00    +0.046 C 
ATOM     14  C   UNL     1      50.575  15.069  17.661  0.00  0.00    -0.067 C 
ATOM     15  C   UNL     1      50.803  14.119  16.817  0.00  0.00    -0.099 C 
ATOM     16  C   UNL     1      50.078  12.762  16.784  0.00  0.00    +0.203 C 
ATOM     19  C   UNL     1      48.880  12.731  17.873  0.00  0.00    +0.021 C 
ATOM     20  C   UNL     1      49.233  13.504  19.095  0.00  0.00    -0.044 C 
ATOM     21  C   UNL     1      50.567  12.957  19.709  0.00  0.00    +0.045 C 
ATOM     22  C   UNL     1      48.141  13.351  20.111  0.00  0.00    +0.053 C 
ATOM     23  C   UNL     1      46.854  14.009  19.514  0.00  0.00    +0.010 C 
ATOM     24  C   UNL     1      46.516  13.337  18.220  0.00  0.00    +0.375 C 
ATOM     25  O   UNL     1      45.355  13.041  17.961  0.00  0.00    -0.461 OA
ATOM     26  C   UNL     1      47.525  13.054  17.196  0.00  0.00    -0.097 C 
ATOM     27  C   UNL     1      47.636  14.190  16.193  0.00  0.00    +0.062 C 
ATOM     28  C   UNL     1      47.132  11.797  16.351  0.00  0.00    +0.054 C 
ATOM     29  C   UNL     1      49.408  15.035  18.727  0.00  0.00    +0.048 C 
ATOM     30  C   UNL     1      49.852  15.842  19.968  0.00  0.00    +0.051 C 
ATOM     31  C   UNL     1      49.989  17.276  19.530  0.00  0.00    +0.022 C 
ATOM     32  C   UNL     1      50.362  17.513  18.162  0.00  0.00    -0.025 C 
ATOM     33  C   UNL     1      49.063  17.520  17.299  0.00  0.00    +0.024 C 
ATOM     34  C   UNL     1      51.541  20.449  16.272  0.00  0.00    +0.503 C 
ATOM     35  O   UNL     1      51.468  21.534  15.740  0.00  0.00    -0.453 OA
ENDROOT
BRANCH  16  17
ATOM     17  O   UNL     1      50.979  11.775  17.026  0.00  0.00    -0.542 OA
ATOM     18  H   UNL     1      51.658  11.686  16.343  0.00  0.00    +0.384 HD
ENDBRANCH  16  17
BRANCH   7   6
ATOM      6  C   UNL     1      50.873  21.039  18.625  0.00  0.00    +0.057 C 
BRANCH   6   5
ATOM      5  C   UNL     1      52.324  20.982  19.104  0.00  0.00    +0.055 C 
BRANCH   5   4
ATOM      1  C   UNL     1      52.327  21.724  21.822  0.00  0.00    +0.074 C 
ATOM      2  C   UNL     1      52.460  20.273  21.437  0.00  0.00    -0.128 C 
ATOM      3  C   UNL     1      52.593  19.219  22.505  0.00  0.00    +0.072 C 
ATOM      4  C   UNL     1      52.459  19.928  20.173  0.00  0.00    -0.065 C 
ENDBRANCH   5   4
ENDBRANCH   6   5
ENDBRANCH   7   6
TORSDOF 4
ENDMDL
MODEL 7
REMARK VINA RESULT:      -5.6      3.504      6.751
REMARK  Name = ZINC95486091
REMARK  11 active torsions:
REMARK  status: ('A' for Active; 'I' for Inactive)
REMARK    1  A    between atoms: C1_1  and  C2_2
REMARK    2  A    between atoms: C2_2  and  C30_40
REMARK    3  A    between atoms: C3_3  and  C4_4
REMARK    4  A    between atoms: C4_4  and  C5_5
REMARK    5  A    between atoms: C5_5  and  C6_6
REMARK    6  A    between atoms: C10_13  and  C28_36
REMARK    7  A    between atoms: C11_14  and  C27_35
REMARK    8  A    between atoms: C17_21  and  O2_34
REMARK    9  A    between atoms: C19_25  and  C26_33
REMARK   10  A    between atoms: C23_30  and  C24_31
REMARK   11  A    between atoms: C23_30  and  C25_32
REMARK                            x       y       z     vdW  Elec       q    Type
REMARK                         _______ _______ _______ _____ _____    ______ ____
ROOT
ATOM      7  C   UNL     1      44.896  18.990  21.633  0.00  0.00    -0.036 C 
ATOM      8  C   UNL     1      45.883  19.548  20.605  0.00  0.00    -0.030 C 
ATOM      9  C   UNL     1      45.690  18.439  19.500  0.00  0.00    +0.125 C 
ATOM     10  O   UNL     1      44.257  18.405  19.502  0.00  0.00    -0.316 OA
ATOM     11  C   UNL     1      46.762  18.612  18.537  0.00  0.00    +0.093 C 
ATOM     12  C   UNL     1      47.739  19.603  19.154  0.00  0.00    -0.011 C 
ATOM     13  C   UNL     1      47.478  20.931  18.606  0.00  0.00    +0.046 C 
ATOM     14  C   UNL     1      49.181  19.286  18.990  0.00  0.00    -0.067 C 
ATOM     15  C   UNL     1      49.649  18.671  17.955  0.00  0.00    -0.099 C 
ATOM     16  C   UNL     1      51.132  18.344  17.708  0.00  0.00    +0.203 C 
ATOM     19  C   UNL     1      52.027  18.754  18.993  0.00  0.00    +0.021 C 
ATOM     20  C   UNL     1      51.500  19.979  19.656  0.00  0.00    -0.044 C 
ATOM     21  C   UNL     1      51.422  21.157  18.625  0.00  0.00    +0.045 C 
ATOM     22  C   UNL     1      52.424  20.378  20.767  0.00  0.00    +0.053 C 
ATOM     23  C   UNL     1      52.392  19.234  21.833  0.00  0.00    +0.010 C 
ATOM     24  C   UNL     1      52.810  17.950  21.187  0.00  0.00    +0.375 C 
ATOM     25  O   UNL     1      53.583  17.192  21.761  0.00  0.00    -0.461 OA
ATOM     26  C   UNL     1      52.286  17.519  19.889  0.00  0.00    -0.097 C 
ATOM     27  C   UNL     1      51.050  16.650  20.046  0.00  0.00    +0.062 C 
ATOM     28  C   UNL     1      53.324  16.624  19.133  0.00  0.00    +0.054 C 
ATOM     29  C   UNL     1      50.056  19.690  20.242  0.00  0.00    +0.048 C 
ATOM     30  C   UNL     1      49.460  20.973  20.865  0.00  0.00    +0.051 C 
ATOM     31  C   UNL     1      48.099  20.608  21.396  0.00  0.00    +0.022 C 
ATOM     32  C   UNL     1      47.387  19.562  20.715  0.00  0.00    -0.025 C 
ATOM     33  C   UNL     1      47.834  18.196  21.319  0.00  0.00    +0.024 C 
ATOM     34  C   UNL     1      43.906  18.350  20.755  0.00  0.00    +0.503 C 
ATOM     35  O   UNL     1      42.918  17.815  21.204  0.00  0.00    -0.453 OA
ENDROOT
BRANCH  16  17
ATOM     17  O   UNL     1      51.548  19.004  16.596  0.00  0.00    -0.542 OA
ATOM     18  H   UNL     1      51.793  19.926  16.754  0.00  0.00    +0.384 HD
ENDBRANCH  16  17
BRANCH   7   6
ATOM      6  C   UNL     1      44.321  20.109  22.505  0.00  0.00    +0.057 C 
BRANCH   6   5
ATOM      5  C   UNL     1      45.028  21.425  22.178  0.00  0.00    +0.055 C 
BRANCH   5   4
ATOM      1  C   UNL     1      46.141  23.740  21.021  0.00  0.00    +0.074 C 
ATOM      2  C   UNL     1      44.873  23.152  20.459  0.00  0.00    -0.128 C 
ATOM      3  C   UNL     1      44.200  23.802  19.277  0.00  0.00    +0.072 C 
ATOM      4  C   UNL     1      44.354  22.076  20.996  0.00  0.00    -0.065 C 
ENDBRANCH   5   4
ENDBRANCH   6   5
ENDBRANCH   7   6
TORSDOF 4
ENDMDL
MODEL 8
REMARK VINA RESULT:      -5.5      1.745      2.863
REMARK  Name = ZINC95486091
REMARK  11 active torsions:
REMARK  status: ('A' for Active; 'I' for Inactive)
REMARK    1  A    between atoms: C1_1  and  C2_2
REMARK    2  A    between atoms: C2_2  and  C30_40
REMARK    3  A    between atoms: C3_3  and  C4_4
REMARK    4  A    between atoms: C4_4  and  C5_5
REMARK    5  A    between atoms: C5_5  and  C6_6
REMARK    6  A    between atoms: C10_13  and  C28_36
REMARK    7  A    between atoms: C11_14  and  C27_35
REMARK    8  A    between atoms: C17_21  and  O2_34
REMARK    9  A    between atoms: C19_25  and  C26_33
REMARK   10  A    between atoms: C23_30  and  C24_31
REMARK   11  A    between atoms: C23_30  and  C25_32
REMARK                            x       y       z     vdW  Elec       q    Type
REMARK                         _______ _______ _______ _____ _____    ______ ____
ROOT
ATOM      7  C   UNL     1      50.513  19.834  18.506  0.00  0.00    -0.036 C 
ATOM      8  C   UNL     1      49.988  18.585  19.217  0.00  0.00    -0.030 C 
ATOM      9  C   UNL     1      51.375  18.032  19.728  0.00  0.00    +0.125 C 
ATOM     10  O   UNL     1      51.896  19.260  20.252  0.00  0.00    -0.316 OA
ATOM     11  C   UNL     1      51.143  16.676  20.190  0.00  0.00    +0.093 C 
ATOM     12  C   UNL     1      49.740  16.299  19.735  0.00  0.00    -0.011 C 
ATOM     13  C   UNL     1      48.814  16.484  20.849  0.00  0.00    +0.046 C 
ATOM     14  C   UNL     1      49.576  14.927  19.192  0.00  0.00    -0.067 C 
ATOM     15  C   UNL     1      50.274  13.923  19.606  0.00  0.00    -0.099 C 
ATOM     16  C   UNL     1      50.130  12.472  19.111  0.00  0.00    +0.203 C 
ATOM     19  C   UNL     1      49.070  12.390  17.891  0.00  0.00    +0.021 C 
ATOM     20  C   UNL     1      47.962  13.369  18.064  0.00  0.00    -0.044 C 
ATOM     21  C   UNL     1      47.253  13.139  19.443  0.00  0.00    +0.045 C 
ATOM     22  C   UNL     1      46.955  13.176  16.971  0.00  0.00    +0.053 C 
ATOM     23  C   UNL     1      47.661  13.524  15.620  0.00  0.00    +0.010 C 
ATOM     24  C   UNL     1      48.854  12.636  15.448  0.00  0.00    +0.375 C 
ATOM     25  O   UNL     1      49.090  12.120  14.362  0.00  0.00    -0.461 OA
ATOM     26  C   UNL     1      49.810  12.389  16.531  0.00  0.00    -0.097 C 
ATOM     27  C   UNL     1      50.960  13.382  16.498  0.00  0.00    +0.062 C 
ATOM     28  C   UNL     1      50.478  10.982  16.381  0.00  0.00    +0.054 C 
ATOM     29  C   UNL     1      48.538  14.844  18.003  0.00  0.00    +0.048 C 
ATOM     30  C   UNL     1      47.413  15.873  18.261  0.00  0.00    +0.051 C 
ATOM     31  C   UNL     1      48.045  17.238  18.181  0.00  0.00    +0.022 C 
ATOM     32  C   UNL     1      49.426  17.346  18.566  0.00  0.00    -0.025 C 
ATOM     33  C   UNL     1      50.305  17.022  17.319  0.00  0.00    +0.024 C 
ATOM     34  C   UNL     1      51.687  20.155  19.330  0.00  0.00    +0.503 C 
ATOM     35  O   UNL     1      52.367  21.131  19.105  0.00  0.00    -0.453 OA
ENDROOT
BRANCH  16  17
ATOM     17  O   UNL     1      49.737  11.691  20.150  0.00  0.00    -0.542 OA
ATOM     18  H   UNL     1      49.466  12.186  20.935  0.00  0.00    +0.384 HD
ENDBRANCH  16  17
BRANCH   7   6
ATOM      6  C   UNL     1      49.452  20.938  18.480  0.00  0.00    +0.057 C 
BRANCH   6   5
ATOM      5  C   UNL     1      48.409  20.667  19.566  0.00  0.00    +0.055 C 
BRANCH   5   4
ATOM      1  C   UNL     1      46.279  19.263  20.762  0.00  0.00    +0.074 C 
ATOM      2  C   UNL     1      46.039  20.081  19.519  0.00  0.00    -0.128 C 
ATOM      3  C   UNL     1      44.659  20.148  18.917  0.00  0.00    +0.072 C 
ATOM      4  C   UNL     1      47.029  20.733  18.962  0.00  0.00    -0.065 C 
ENDBRANCH   5   4
ENDBRANCH   6   5
ENDBRANCH   7   6
TORSDOF 4
ENDMDL
MODEL 9
REMARK VINA RESULT:      -5.5      1.540      2.097
REMARK  Name = ZINC95486091
REMARK  11 active torsions:
REMARK  status: ('A' for Active; 'I' for Inactive)
REMARK    1  A    between atoms: C1_1  and  C2_2
REMARK    2  A    between atoms: C2_2  and  C30_40
REMARK    3  A    between atoms: C3_3  and  C4_4
REMARK    4  A    between atoms: C4_4  and  C5_5
REMARK    5  A    between atoms: C5_5  and  C6_6
REMARK    6  A    between atoms: C10_13  and  C28_36
REMARK    7  A    between atoms: C11_14  and  C27_35
REMARK    8  A    between atoms: C17_21  and  O2_34
REMARK    9  A    between atoms: C19_25  and  C26_33
REMARK   10  A    between atoms: C23_30  and  C24_31
REMARK   11  A    between atoms: C23_30  and  C25_32
REMARK                            x       y       z     vdW  Elec       q    Type
REMARK                         _______ _______ _______ _____ _____    ______ ____
ROOT
ATOM      7  C   UNL     1      50.416  19.494  17.918  0.00  0.00    -0.036 C 
ATOM      8  C   UNL     1      50.395  18.359  18.945  0.00  0.00    -0.030 C 
ATOM      9  C   UNL     1      51.623  17.543  18.384  0.00  0.00    +0.125 C 
ATOM     10  O   UNL     1      52.530  18.639  18.217  0.00  0.00    -0.316 OA
ATOM     11  C   UNL     1      51.606  16.249  19.043  0.00  0.00    +0.093 C 
ATOM     12  C   UNL     1      50.273  16.156  19.775  0.00  0.00    -0.011 C 
ATOM     13  C   UNL     1      50.478  16.500  21.179  0.00  0.00    +0.046 C 
ATOM     14  C   UNL     1      49.573  14.849  19.692  0.00  0.00    -0.067 C 
ATOM     15  C   UNL     1      50.201  13.723  19.612  0.00  0.00    -0.099 C 
ATOM     16  C   UNL     1      49.538  12.335  19.559  0.00  0.00    +0.203 C 
ATOM     19  C   UNL     1      47.927  12.476  19.478  0.00  0.00    +0.021 C 
ATOM     20  C   UNL     1      47.443  13.648  20.260  0.00  0.00    -0.044 C 
ATOM     21  C   UNL     1      47.926  13.539  21.747  0.00  0.00    +0.045 C 
ATOM     22  C   UNL     1      45.944  13.668  20.244  0.00  0.00    +0.053 C 
ATOM     23  C   UNL     1      45.497  13.893  18.762  0.00  0.00    +0.010 C 
ATOM     24  C   UNL     1      46.053  12.795  17.911  0.00  0.00    +0.375 C 
ATOM     25  O   UNL     1      45.354  12.259  17.058  0.00  0.00    -0.461 OA
ATOM     26  C   UNL     1      47.446  12.353  18.012  0.00  0.00    -0.097 C 
ATOM     27  C   UNL     1      48.343  13.106  17.044  0.00  0.00    +0.062 C 
ATOM     28  C   UNL     1      47.588  10.846  17.616  0.00  0.00    +0.054 C 
ATOM     29  C   UNL     1      48.001  14.985  19.618  0.00  0.00    +0.048 C 
ATOM     30  C   UNL     1      47.573  16.208  20.462  0.00  0.00    +0.051 C 
ATOM     31  C   UNL     1      48.139  17.426  19.782  0.00  0.00    +0.022 C 
ATOM     32  C   UNL     1      49.367  17.261  19.053  0.00  0.00    -0.025 C 
ATOM     33  C   UNL     1      49.015  16.792  17.608  0.00  0.00    +0.024 C 
ATOM     34  C   UNL     1      51.852  19.571  17.613  0.00  0.00    +0.503 C 
ATOM     35  O   UNL     1      52.290  20.401  16.849  0.00  0.00    -0.453 OA
ENDROOT
BRANCH  16  17
ATOM     17  O   UNL     1      49.909  11.629  20.658  0.00  0.00    -0.542 OA
ATOM     18  H   UNL     1      50.864  11.605  20.807  0.00  0.00    +0.384 HD
ENDBRANCH  16  17
BRANCH   7   6
ATOM      6  C   UNL     1      49.838  20.781  18.512  0.00  0.00    +0.057 C 
BRANCH   6   5
ATOM      5  C   UNL     1      49.832  20.681  20.038  0.00  0.00    +0.055 C 
BRANCH   5   4
ATOM      1  C   UNL     1      48.956  19.622  22.497  0.00  0.00    +0.074 C 
ATOM      2  C   UNL     1      48.052  20.527  21.702  0.00  0.00    -0.128 C 
ATOM      3  C   UNL     1      46.678  20.865  22.221  0.00  0.00    +0.072 C 
ATOM      4  C   UNL     1      48.458  21.019  20.558  0.00  0.00    -0.065 C 
ENDBRANCH   5   4
ENDBRANCH   6   5
ENDBRANCH   7   6
TORSDOF 4
ENDMDL
