MODEL 1
REMARK VINA RESULT:      -7.1      0.000      0.000
REMARK  Name = ZINC14691443
REMARK  16 active torsions:
REMARK  status: ('A' for Active; 'I' for Inactive)
REMARK    1  A    between atoms: C1_1  and  C2_2
REMARK    2  A    between atoms: C4_4  and  O3_30
REMARK    3  A    between atoms: C8_9  and  C11_12
REMARK    4  A    between atoms: C8_9  and  C12_13
REMARK    5  A    between atoms: C12_13  and  C13_14
REMARK    6  A    between atoms: C13_14  and  C14_15
REMARK    7  A    between atoms: C15_16  and  C16_17
REMARK    8  A    between atoms: C15_16  and  C17_18
REMARK    9  A    between atoms: C17_18  and  C18_19
REMARK   10  A    between atoms: C18_19  and  C19_20
REMARK   11  A    between atoms: C20_21  and  C21_22
REMARK   12  A    between atoms: C20_21  and  C27_28
REMARK   13  A    between atoms: C21_22  and  C22_23
REMARK   14  A    between atoms: C22_23  and  C23_24
REMARK   15  A    between atoms: C24_25  and  C25_26
REMARK   16  A    between atoms: C24_25  and  C26_27
REMARK                            x       y       z     vdW  Elec       q    Type
REMARK                         _______ _______ _______ _____ _____    ______ ____
ROOT
ATOM     13  C   UNL     1      45.710  19.690  18.726  0.00  0.00    +0.059 C 
ENDROOT
BRANCH  13  14
ATOM     14  C   UNL     1      47.071  19.072  18.536  0.00  0.00    -0.061 C 
ATOM     15  C   UNL     1      47.603  18.354  19.495  0.00  0.00    -0.122 C 
ATOM     29  C   UNL     1      46.809  18.051  20.739  0.00  0.00    +0.070 C 
BRANCH  15  16
ATOM     16  C   UNL     1      49.009  17.830  19.351  0.00  0.00    +0.052 C 
BRANCH  16  17
ATOM     17  C   UNL     1      49.117  17.003  18.068  0.00  0.00    +0.062 C 
BRANCH  17  18
ATOM     18  C   UNL     1      49.821  17.809  17.008  0.00  0.00    -0.077 C 
ATOM     19  C   UNL     1      51.142  17.713  16.867  0.00  0.00    -0.130 C 
BRANCH  19  20
ATOM     20  C   UNL     1      51.893  16.722  17.648  0.00  0.00    +0.496 C 
ATOM     21  O   UNL     1      51.865  15.422  17.293  0.00  0.00    -0.761 OA
ATOM     22  O   UNL     1      52.541  17.074  18.614  0.00  0.00    -0.636 OA
ENDBRANCH  19  20
BRANCH  19  23
ATOM     23  C   UNL     1      51.864  18.621  15.906  0.00  0.00    +0.060 C 
BRANCH  23  24
ATOM     24  C   UNL     1      51.574  20.081  16.267  0.00  0.00    +0.061 C 
BRANCH  24  25
ATOM     25  C   UNL     1      52.305  20.438  17.536  0.00  0.00    -0.040 C 
ATOM     26  C   UNL     1      51.653  20.968  18.540  0.00  0.00    -0.156 C 
ATOM     27  C   UNL     1      52.400  21.431  19.765  0.00  0.00    +0.066 C 
ATOM     28  C   UNL     1      50.154  21.113  18.473  0.00  0.00    +0.070 C 
ENDBRANCH  24  25
ENDBRANCH  23  24
ENDBRANCH  19  23
ENDBRANCH  17  18
ENDBRANCH  16  17
ENDBRANCH  15  16
ENDBRANCH  13  14
BRANCH  13  12
ATOM     12  C   UNL     1      45.832  21.215  18.682  0.00  0.00    +0.017 C 
BRANCH  12  11
ATOM      1  C   UNL     1      42.671  18.626  20.359  0.00  0.00    +0.104 C 
ATOM      2  C   UNL     1      42.237  19.938  19.758  0.00  0.00    -0.094 A 
ATOM      3  C   UNL     1      41.015  20.035  19.115  0.00  0.00    +0.020 A 
ATOM      4  C   UNL     1      40.607  21.239  18.559  0.00  0.00    +0.077 A 
ATOM      7  C   UNL     1      41.425  22.355  18.637  0.00  0.00    +0.029 A 
ATOM      8  C   UNL     1      42.655  22.261  19.276  0.00  0.00    -0.110 A 
ATOM      9  C   UNL     1      43.561  23.424  19.386  0.00  0.00    +0.030 C 
ATOM     10  C   UNL     1      44.823  23.209  19.745  0.00  0.00    -0.040 C 
ATOM     11  C   UNL     1      45.310  21.806  19.994  0.00  0.00    +0.152 C 
ATOM     30  C   UNL     1      46.447  21.841  21.017  0.00  0.00    +0.081 C 
ATOM     31  O   UNL     1      44.254  20.985  20.491  0.00  0.00    -0.299 OA
ATOM     32  C   UNL     1      43.059  21.045  19.847  0.00  0.00    +0.129 A 
BRANCH   4   5
ATOM      5  O   UNL     1      39.401  21.325  17.935  0.00  0.00    -0.496 OA
ATOM      6  H   UNL     1      39.019  20.468  17.698  0.00  0.00    +0.386 HD
ENDBRANCH   4   5
ENDBRANCH  12  11
ENDBRANCH  13  12
TORSDOF 11
ENDMDL
MODEL 2
REMARK VINA RESULT:      -7.0      1.290      3.303
REMARK  Name = ZINC14691443
REMARK  16 active torsions:
REMARK  status: ('A' for Active; 'I' for Inactive)
REMARK    1  A    between atoms: C1_1  and  C2_2
REMARK    2  A    between atoms: C4_4  and  O3_30
REMARK    3  A    between atoms: C8_9  and  C11_12
REMARK    4  A    between atoms: C8_9  and  C12_13
REMARK    5  A    between atoms: C12_13  and  C13_14
REMARK    6  A    between atoms: C13_14  and  C14_15
REMARK    7  A    between atoms: C15_16  and  C16_17
REMARK    8  A    between atoms: C15_16  and  C17_18
REMARK    9  A    between atoms: C17_18  and  C18_19
REMARK   10  A    between atoms: C18_19  and  C19_20
REMARK   11  A    between atoms: C20_21  and  C21_22
REMARK   12  A    between atoms: C20_21  and  C27_28
REMARK   13  A    between atoms: C21_22  and  C22_23
REMARK   14  A    between atoms: C22_23  and  C23_24
REMARK   15  A    between atoms: C24_25  and  C25_26
REMARK   16  A    between atoms: C24_25  and  C26_27
REMARK                            x       y       z     vdW  Elec       q    Type
REMARK                         _______ _______ _______ _____ _____    ______ ____
ROOT
ATOM     13  C   UNL     1      48.869  20.772  19.977  0.00  0.00    +0.059 C 
ENDROOT
BRANCH  13  14
ATOM     14  C   UNL     1      49.541  20.625  18.636  0.00  0.00    -0.061 C 
ATOM     15  C   UNL     1      50.793  20.983  18.488  0.00  0.00    -0.122 C 
ATOM     29  C   UNL     1      51.594  21.433  19.682  0.00  0.00    +0.070 C 
BRANCH  15  16
ATOM     16  C   UNL     1      51.431  20.943  17.123  0.00  0.00    +0.052 C 
BRANCH  16  17
ATOM     17  C   UNL     1      52.241  19.654  16.977  0.00  0.00    +0.062 C 
BRANCH  17  18
ATOM     18  C   UNL     1      51.309  18.502  16.709  0.00  0.00    -0.077 C 
ATOM     19  C   UNL     1      51.302  17.447  17.521  0.00  0.00    -0.130 C 
BRANCH  19  20
ATOM     20  C   UNL     1      52.102  17.466  18.754  0.00  0.00    +0.496 C 
ATOM     21  O   UNL     1      51.566  17.936  19.897  0.00  0.00    -0.761 OA
ATOM     22  O   UNL     1      53.246  17.056  18.742  0.00  0.00    -0.636 OA
ENDBRANCH  19  20
BRANCH  19  23
ATOM     23  C   UNL     1      50.476  16.236  17.177  0.00  0.00    +0.060 C 
BRANCH  23  24
ATOM     24  C   UNL     1      48.990  16.606  17.207  0.00  0.00    +0.061 C 
BRANCH  24  25
ATOM     25  C   UNL     1      48.511  16.641  18.636  0.00  0.00    -0.040 C 
ATOM     26  C   UNL     1      47.478  17.376  18.961  0.00  0.00    -0.156 C 
ATOM     27  C   UNL     1      47.067  17.501  20.407  0.00  0.00    +0.066 C 
ATOM     28  C   UNL     1      46.698  18.097  17.891  0.00  0.00    +0.070 C 
ENDBRANCH  24  25
ENDBRANCH  23  24
ENDBRANCH  19  23
ENDBRANCH  17  18
ENDBRANCH  16  17
ENDBRANCH  15  16
ENDBRANCH  13  14
BRANCH  13  12
ATOM     12  C   UNL     1      47.399  21.144  19.773  0.00  0.00    +0.017 C 
BRANCH  12  11
ATOM      1  C   UNL     1      43.670  18.789  20.006  0.00  0.00    +0.104 C 
ATOM      2  C   UNL     1      43.531  20.283  19.868  0.00  0.00    -0.094 A 
ATOM      3  C   UNL     1      42.470  20.817  19.158  0.00  0.00    +0.020 A 
ATOM      4  C   UNL     1      42.334  22.192  19.026  0.00  0.00    +0.077 A 
ATOM      7  C   UNL     1      43.265  23.043  19.600  0.00  0.00    +0.029 A 
ATOM      8  C   UNL     1      44.336  22.511  20.308  0.00  0.00    -0.110 A 
ATOM      9  C   UNL     1      45.353  23.377  20.940  0.00  0.00    +0.030 C 
ATOM     10  C   UNL     1      46.490  22.821  21.350  0.00  0.00    -0.040 C 
ATOM     11  C   UNL     1      46.732  21.350  21.135  0.00  0.00    +0.152 C 
ATOM     30  C   UNL     1      47.658  20.827  22.234  0.00  0.00    +0.081 C 
ATOM     31  O   UNL     1      45.503  20.625  21.171  0.00  0.00    -0.299 OA
ATOM     32  C   UNL     1      44.464  21.121  20.449  0.00  0.00    +0.129 A 
BRANCH   4   5
ATOM      5  O   UNL     1      41.284  22.706  18.332  0.00  0.00    -0.496 OA
ATOM      6  H   UNL     1      40.424  22.351  18.598  0.00  0.00    +0.386 HD
ENDBRANCH   4   5
ENDBRANCH  12  11
ENDBRANCH  13  12
TORSDOF 11
ENDMDL
MODEL 3
REMARK VINA RESULT:      -6.7      1.318      1.869
REMARK  Name = ZINC14691443
REMARK  16 active torsions:
REMARK  status: ('A' for Active; 'I' for Inactive)
REMARK    1  A    between atoms: C1_1  and  C2_2
REMARK    2  A    between atoms: C4_4  and  O3_30
REMARK    3  A    between atoms: C8_9  and  C11_12
REMARK    4  A    between atoms: C8_9  and  C12_13
REMARK    5  A    between atoms: C12_13  and  C13_14
REMARK    6  A    between atoms: C13_14  and  C14_15
REMARK    7  A    between atoms: C15_16  and  C16_17
REMARK    8  A    between atoms: C15_16  and  C17_18
REMARK    9  A    between atoms: C17_18  and  C18_19
REMARK   10  A    between atoms: C18_19  and  C19_20
REMARK   11  A    between atoms: C20_21  and  C21_22
REMARK   12  A    between atoms: C20_21  and  C27_28
REMARK   13  A    between atoms: C21_22  and  C22_23
REMARK   14  A    between atoms: C22_23  and  C23_24
REMARK   15  A    between atoms: C24_25  and  C25_26
REMARK   16  A    between atoms: C24_25  and  C26_27
REMARK                            x       y       z     vdW  Elec       q    Type
REMARK                         _______ _______ _______ _____ _____    ______ ____
ROOT
ATOM     13  C   UNL     1      46.983  20.285  18.955  0.00  0.00    +0.059 C 
ENDROOT
BRANCH  13  14
ATOM     14  C   UNL     1      46.518  18.967  18.393  0.00  0.00    -0.061 C 
ATOM     15  C   UNL     1      46.413  17.921  19.175  0.00  0.00    -0.122 C 
ATOM     29  C   UNL     1      46.646  18.063  20.657  0.00  0.00    +0.070 C 
BRANCH  15  16
ATOM     16  C   UNL     1      46.057  16.577  18.593  0.00  0.00    +0.052 C 
BRANCH  16  17
ATOM     17  C   UNL     1      47.225  15.609  18.793  0.00  0.00    +0.062 C 
BRANCH  17  18
ATOM     18  C   UNL     1      48.368  16.009  17.896  0.00  0.00    -0.077 C 
ATOM     19  C   UNL     1      49.586  16.179  18.405  0.00  0.00    -0.130 C 
BRANCH  19  20
ATOM     20  C   UNL     1      49.847  15.844  19.812  0.00  0.00    +0.496 C 
ATOM     21  O   UNL     1      49.837  16.814  20.748  0.00  0.00    -0.761 OA
ATOM     22  O   UNL     1      50.071  14.693  20.130  0.00  0.00    -0.636 OA
ENDBRANCH  19  20
BRANCH  19  23
ATOM     23  C   UNL     1      50.696  16.714  17.539  0.00  0.00    +0.060 C 
BRANCH  23  24
ATOM     24  C   UNL     1      50.249  18.026  16.888  0.00  0.00    +0.061 C 
BRANCH  24  25
ATOM     25  C   UNL     1      50.389  19.152  17.880  0.00  0.00    -0.040 C 
ATOM     26  C   UNL     1      51.158  20.175  17.604  0.00  0.00    -0.156 C 
ATOM     27  C   UNL     1      51.390  21.246  18.640  0.00  0.00    +0.066 C 
ATOM     28  C   UNL     1      51.812  20.283  16.250  0.00  0.00    +0.070 C 
ENDBRANCH  24  25
ENDBRANCH  23  24
ENDBRANCH  19  23
ENDBRANCH  17  18
ENDBRANCH  16  17
ENDBRANCH  15  16
ENDBRANCH  13  14
BRANCH  13  12
ATOM     12  C   UNL     1      45.919  21.354  18.696  0.00  0.00    +0.017 C 
BRANCH  12  11
ATOM      1  C   UNL     1      42.899  18.527  20.242  0.00  0.00    +0.104 C 
ATOM      2  C   UNL     1      42.396  19.839  19.698  0.00  0.00    -0.094 A 
ATOM      3  C   UNL     1      41.173  19.899  19.056  0.00  0.00    +0.020 A 
ATOM      4  C   UNL     1      40.701  21.104  18.552  0.00  0.00    +0.077 A 
ATOM      7  C   UNL     1      41.458  22.258  18.684  0.00  0.00    +0.029 A 
ATOM      8  C   UNL     1      42.690  22.201  19.322  0.00  0.00    -0.110 A 
ATOM      9  C   UNL     1      43.532  23.404  19.489  0.00  0.00    +0.030 C 
ATOM     10  C   UNL     1      44.804  23.242  19.843  0.00  0.00    -0.040 C 
ATOM     11  C   UNL     1      45.365  21.857  20.030  0.00  0.00    +0.152 C 
ATOM     30  C   UNL     1      46.496  21.907  21.059  0.00  0.00    +0.081 C 
ATOM     31  O   UNL     1      44.353  20.959  20.486  0.00  0.00    -0.299 OA
ATOM     32  C   UNL     1      43.158  20.984  19.840  0.00  0.00    +0.129 A 
BRANCH   4   5
ATOM      5  O   UNL     1      39.494  21.153  17.928  0.00  0.00    -0.496 OA
ATOM      6  H   UNL     1      38.945  20.369  18.071  0.00  0.00    +0.386 HD
ENDBRANCH   4   5
ENDBRANCH  12  11
ENDBRANCH  13  12
TORSDOF 11
ENDMDL
MODEL 4
REMARK VINA RESULT:      -6.5      2.454      5.975
REMARK  Name = ZINC14691443
REMARK  16 active torsions:
REMARK  status: ('A' for Active; 'I' for Inactive)
REMARK    1  A    between atoms: C1_1  and  C2_2
REMARK    2  A    between atoms: C4_4  and  O3_30
REMARK    3  A    between atoms: C8_9  and  C11_12
REMARK    4  A    between atoms: C8_9  and  C12_13
REMARK    5  A    between atoms: C12_13  and  C13_14
REMARK    6  A    between atoms: C13_14  and  C14_15
REMARK    7  A    between atoms: C15_16  and  C16_17
REMARK    8  A    between atoms: C15_16  and  C17_18
REMARK    9  A    between atoms: C17_18  and  C18_19
REMARK   10  A    between atoms: C18_19  and  C19_20
REMARK   11  A    between atoms: C20_21  and  C21_22
REMARK   12  A    between atoms: C20_21  and  C27_28
REMARK   13  A    between atoms: C21_22  and  C22_23
REMARK   14  A    between atoms: C22_23  and  C23_24
REMARK   15  A    between atoms: C24_25  and  C25_26
REMARK   16  A    between atoms: C24_25  and  C26_27
REMARK                            x       y       z     vdW  Elec       q    Type
REMARK                         _______ _______ _______ _____ _____    ______ ____
ROOT
ATOM     13  C   UNL     1      50.116  16.569  17.279  0.00  0.00    +0.059 C 
ENDROOT
BRANCH  13  14
ATOM     14  C   UNL     1      50.562  17.850  16.622  0.00  0.00    -0.061 C 
ATOM     15  C   UNL     1      51.652  18.451  17.031  0.00  0.00    -0.122 C 
ATOM     29  C   UNL     1      52.521  17.804  18.079  0.00  0.00    +0.070 C 
BRANCH  15  16
ATOM     16  C   UNL     1      52.037  19.789  16.453  0.00  0.00    +0.052 C 
BRANCH  16  17
ATOM     17  C   UNL     1      52.025  20.845  17.560  0.00  0.00    +0.062 C 
BRANCH  17  18
ATOM     18  C   UNL     1      50.637  20.955  18.134  0.00  0.00    -0.077 C 
ATOM     19  C   UNL     1      50.453  20.884  19.451  0.00  0.00    -0.130 C 
BRANCH  19  20
ATOM     20  C   UNL     1      51.613  20.839  20.352  0.00  0.00    +0.496 C 
ATOM     21  O   UNL     1      52.005  19.665  20.887  0.00  0.00    -0.761 OA
ATOM     22  O   UNL     1      52.219  21.859  20.614  0.00  0.00    -0.636 OA
ENDBRANCH  19  20
BRANCH  19  23
ATOM     23  C   UNL     1      49.057  20.851  20.016  0.00  0.00    +0.060 C 
BRANCH  23  24
ATOM     24  C   UNL     1      48.079  20.389  18.933  0.00  0.00    +0.061 C 
BRANCH  24  25
ATOM     25  C   UNL     1      46.682  20.815  19.304  0.00  0.00    -0.040 C 
ATOM     26  C   UNL     1      45.652  20.149  18.846  0.00  0.00    -0.156 C 
ATOM     27  C   UNL     1      44.253  20.640  19.122  0.00  0.00    +0.066 C 
ATOM     28  C   UNL     1      45.863  18.890  18.044  0.00  0.00    +0.070 C 
ENDBRANCH  24  25
ENDBRANCH  23  24
ENDBRANCH  19  23
ENDBRANCH  17  18
ENDBRANCH  16  17
ENDBRANCH  15  16
ENDBRANCH  13  14
BRANCH  13  12
ATOM     12  C   UNL     1      49.001  16.871  18.282  0.00  0.00    +0.017 C 
BRANCH  12  11
ATOM      1  C   UNL     1      45.362  14.613  19.362  0.00  0.00    +0.104 C 
ATOM      2  C   UNL     1      45.703  15.812  20.209  0.00  0.00    -0.094 A 
ATOM      3  C   UNL     1      44.693  16.581  20.759  0.00  0.00    +0.020 A 
ATOM      4  C   UNL     1      44.998  17.686  21.541  0.00  0.00    +0.077 A 
ATOM      7  C   UNL     1      46.320  18.033  21.772  0.00  0.00    +0.029 A 
ATOM      8  C   UNL     1      47.337  17.268  21.216  0.00  0.00    -0.110 A 
ATOM      9  C   UNL     1      48.761  17.597  21.436  0.00  0.00    +0.030 C 
ATOM     10  C   UNL     1      49.671  17.014  20.660  0.00  0.00    -0.040 C 
ATOM     11  C   UNL     1      49.240  16.073  19.566  0.00  0.00    +0.152 C 
ATOM     30  C   UNL     1      50.346  15.045  19.322  0.00  0.00    +0.081 C 
ATOM     31  O   UNL     1      48.038  15.395  19.928  0.00  0.00    -0.299 OA
ATOM     32  C   UNL     1      47.025  16.144  20.436  0.00  0.00    +0.129 A 
BRANCH   4   5
ATOM      5  O   UNL     1      43.997  18.432  22.082  0.00  0.00    -0.496 OA
ATOM      6  H   UNL     1      43.232  18.545  21.501  0.00  0.00    +0.386 HD
ENDBRANCH   4   5
ENDBRANCH  12  11
ENDBRANCH  13  12
TORSDOF 11
ENDMDL
MODEL 5
REMARK VINA RESULT:      -6.2      2.194      8.415
REMARK  Name = ZINC14691443
REMARK  16 active torsions:
REMARK  status: ('A' for Active; 'I' for Inactive)
REMARK    1  A    between atoms: C1_1  and  C2_2
REMARK    2  A    between atoms: C4_4  and  O3_30
REMARK    3  A    between atoms: C8_9  and  C11_12
REMARK    4  A    between atoms: C8_9  and  C12_13
REMARK    5  A    between atoms: C12_13  and  C13_14
REMARK    6  A    between atoms: C13_14  and  C14_15
REMARK    7  A    between atoms: C15_16  and  C16_17
REMARK    8  A    between atoms: C15_16  and  C17_18
REMARK    9  A    between atoms: C17_18  and  C18_19
REMARK   10  A    between atoms: C18_19  and  C19_20
REMARK   11  A    between atoms: C20_21  and  C21_22
REMARK   12  A    between atoms: C20_21  and  C27_28
REMARK   13  A    between atoms: C21_22  and  C22_23
REMARK   14  A    between atoms: C22_23  and  C23_24
REMARK   15  A    between atoms: C24_25  and  C25_26
REMARK   16  A    between atoms: C24_25  and  C26_27
REMARK                            x       y       z     vdW  Elec       q    Type
REMARK                         _______ _______ _______ _____ _____    ______ ____
ROOT
ATOM     13  C   UNL     1      48.328  15.469  18.601  0.00  0.00    +0.059 C 
ENDROOT
BRANCH  13  14
ATOM     14  C   UNL     1      46.897  15.789  18.950  0.00  0.00    -0.061 C 
ATOM     15  C   UNL     1      46.441  15.525  20.149  0.00  0.00    -0.122 C 
ATOM     29  C   UNL     1      47.373  15.007  21.213  0.00  0.00    +0.070 C 
BRANCH  15  16
ATOM     16  C   UNL     1      44.982  15.740  20.464  0.00  0.00    +0.052 C 
BRANCH  16  17
ATOM     17  C   UNL     1      44.795  17.120  21.097  0.00  0.00    +0.062 C 
BRANCH  17  18
ATOM     18  C   UNL     1      44.195  18.060  20.084  0.00  0.00    -0.077 C 
ATOM     19  C   UNL     1      44.839  19.177  19.749  0.00  0.00    -0.130 C 
BRANCH  19  20
ATOM     20  C   UNL     1      46.194  19.424  20.260  0.00  0.00    +0.496 C 
ATOM     21  O   UNL     1      46.370  19.835  21.531  0.00  0.00    -0.761 OA
ATOM     22  O   UNL     1      47.156  19.257  19.536  0.00  0.00    -0.636 OA
ENDBRANCH  19  20
BRANCH  19  23
ATOM     23  C   UNL     1      44.177  20.185  18.846  0.00  0.00    +0.060 C 
BRANCH  23  24
ATOM     24  C   UNL     1      43.323  21.139  19.686  0.00  0.00    +0.061 C 
BRANCH  24  25
ATOM     25  C   UNL     1      42.069  21.489  18.928  0.00  0.00    -0.040 C 
ATOM     26  C   UNL     1      40.985  20.773  19.089  0.00  0.00    -0.156 C 
ATOM     27  C   UNL     1      39.765  21.051  18.248  0.00  0.00    +0.066 C 
ATOM     28  C   UNL     1      40.956  19.669  20.116  0.00  0.00    +0.070 C 
ENDBRANCH  24  25
ENDBRANCH  23  24
ENDBRANCH  19  23
ENDBRANCH  17  18
ENDBRANCH  16  17
ENDBRANCH  15  16
ENDBRANCH  13  14
BRANCH  13  12
ATOM     12  C   UNL     1      49.049  16.750  18.175  0.00  0.00    +0.017 C 
BRANCH  12  11
ATOM      1  C   UNL     1      50.375  20.526  20.042  0.00  0.00    +0.104 C 
ATOM      2  C   UNL     1      50.863  20.242  18.645  0.00  0.00    -0.094 A 
ATOM      3  C   UNL     1      51.060  21.284  17.756  0.00  0.00    +0.020 A 
ATOM      4  C   UNL     1      51.510  21.032  16.467  0.00  0.00    +0.077 A 
ATOM      7  C   UNL     1      51.760  19.731  16.058  0.00  0.00    +0.029 A 
ATOM      8  C   UNL     1      51.557  18.682  16.946  0.00  0.00    -0.110 A 
ATOM      9  C   UNL     1      51.811  17.279  16.557  0.00  0.00    +0.030 C 
ATOM     10  C   UNL     1      51.335  16.311  17.335  0.00  0.00    -0.040 C 
ATOM     11  C   UNL     1      50.527  16.655  18.559  0.00  0.00    +0.152 C 
ATOM     30  C   UNL     1      50.706  15.553  19.605  0.00  0.00    +0.081 C 
ATOM     31  O   UNL     1      50.950  17.901  19.110  0.00  0.00    -0.299 OA
ATOM     32  C   UNL     1      51.113  18.942  18.251  0.00  0.00    +0.129 A 
BRANCH   4   5
ATOM      5  O   UNL     1      51.706  22.063  15.603  0.00  0.00    -0.496 OA
ATOM      6  H   UNL     1      52.316  22.740  15.930  0.00  0.00    +0.386 HD
ENDBRANCH   4   5
ENDBRANCH  12  11
ENDBRANCH  13  12
TORSDOF 11
ENDMDL
MODEL 6
REMARK VINA RESULT:      -6.1      1.909      8.572
REMARK  Name = ZINC14691443
REMARK  16 active torsions:
REMARK  status: ('A' for Active; 'I' for Inactive)
REMARK    1  A    between atoms: C1_1  and  C2_2
REMARK    2  A    between atoms: C4_4  and  O3_30
REMARK    3  A    between atoms: C8_9  and  C11_12
REMARK    4  A    between atoms: C8_9  and  C12_13
REMARK    5  A    between atoms: C12_13  and  C13_14
REMARK    6  A    between atoms: C13_14  and  C14_15
REMARK    7  A    between atoms: C15_16  and  C16_17
REMARK    8  A    between atoms: C15_16  and  C17_18
REMARK    9  A    between atoms: C17_18  and  C18_19
REMARK   10  A    between atoms: C18_19  and  C19_20
REMARK   11  A    between atoms: C20_21  and  C21_22
REMARK   12  A    between atoms: C20_21  and  C27_28
REMARK   13  A    between atoms: C21_22  and  C22_23
REMARK   14  A    between atoms: C22_23  and  C23_24
REMARK   15  A    between atoms: C24_25  and  C25_26
REMARK   16  A    between atoms: C24_25  and  C26_27
REMARK                            x       y       z     vdW  Elec       q    Type
REMARK                         _______ _______ _______ _____ _____    ______ ____
ROOT
ATOM     13  C   UNL     1      47.087  16.575  17.766  0.00  0.00    +0.059 C 
ENDROOT
BRANCH  13  14
ATOM     14  C   UNL     1      46.452  17.803  18.367  0.00  0.00    -0.061 C 
ATOM     15  C   UNL     1      45.822  17.720  19.513  0.00  0.00    -0.122 C 
ATOM     29  C   UNL     1      45.830  16.427  20.285  0.00  0.00    +0.070 C 
BRANCH  15  16
ATOM     16  C   UNL     1      45.091  18.920  20.058  0.00  0.00    +0.052 C 
BRANCH  16  17
ATOM     17  C   UNL     1      46.027  20.130  20.061  0.00  0.00    +0.062 C 
BRANCH  17  18
ATOM     18  C   UNL     1      45.376  21.272  19.325  0.00  0.00    -0.077 C 
ATOM     19  C   UNL     1      45.038  22.381  19.980  0.00  0.00    -0.130 C 
BRANCH  19  20
ATOM     20  C   UNL     1      45.425  22.548  21.387  0.00  0.00    +0.496 C 
ATOM     21  O   UNL     1      46.641  23.040  21.698  0.00  0.00    -0.761 OA
ATOM     22  O   UNL     1      44.648  22.243  22.271  0.00  0.00    -0.636 OA
ENDBRANCH  19  20
BRANCH  19  23
ATOM     23  C   UNL     1      44.260  23.463  19.278  0.00  0.00    +0.060 C 
BRANCH  23  24
ATOM     24  C   UNL     1      42.780  23.078  19.229  0.00  0.00    +0.061 C 
BRANCH  24  25
ATOM     25  C   UNL     1      42.645  21.581  19.351  0.00  0.00    -0.040 C 
ATOM     26  C   UNL     1      41.508  21.001  19.062  0.00  0.00    -0.156 C 
ATOM     27  C   UNL     1      41.338  19.520  19.292  0.00  0.00    +0.066 C 
ATOM     28  C   UNL     1      40.369  21.812  18.498  0.00  0.00    +0.070 C 
ENDBRANCH  24  25
ENDBRANCH  23  24
ENDBRANCH  19  23
ENDBRANCH  17  18
ENDBRANCH  16  17
ENDBRANCH  15  16
ENDBRANCH  13  14
BRANCH  13  12
ATOM     12  C   UNL     1      48.380  16.969  17.049  0.00  0.00    +0.017 C 
BRANCH  12  11
ATOM      1  C   UNL     1      49.462  20.568  19.369  0.00  0.00    +0.104 C 
ATOM      2  C   UNL     1      50.387  20.170  18.249  0.00  0.00    -0.094 A 
ATOM      3  C   UNL     1      51.055  21.140  17.523  0.00  0.00    +0.020 A 
ATOM      4  C   UNL     1      51.910  20.782  16.490  0.00  0.00    +0.077 A 
ATOM      7  C   UNL     1      52.097  19.447  16.172  0.00  0.00    +0.029 A 
ATOM      8  C   UNL     1      51.424  18.469  16.893  0.00  0.00    -0.110 A 
ATOM      9  C   UNL     1      51.593  17.031  16.593  0.00  0.00    +0.030 C 
ATOM     10  C   UNL     1      50.722  16.171  17.113  0.00  0.00    -0.040 C 
ATOM     11  C   UNL     1      49.577  16.670  17.955  0.00  0.00    +0.152 C 
ATOM     30  C   UNL     1      49.187  15.589  18.965  0.00  0.00    +0.081 C 
ATOM     31  O   UNL     1      49.945  17.858  18.655  0.00  0.00    -0.299 OA
ATOM     32  C   UNL     1      50.570  18.834  17.945  0.00  0.00    +0.129 A 
BRANCH   4   5
ATOM      5  O   UNL     1      52.565  21.745  15.788  0.00  0.00    -0.496 OA
ATOM      6  H   UNL     1      52.765  21.498  14.874  0.00  0.00    +0.386 HD
ENDBRANCH   4   5
ENDBRANCH  12  11
ENDBRANCH  13  12
TORSDOF 11
ENDMDL
MODEL 7
REMARK VINA RESULT:      -6.1      2.034      3.390
REMARK  Name = ZINC14691443
REMARK  16 active torsions:
REMARK  status: ('A' for Active; 'I' for Inactive)
REMARK    1  A    between atoms: C1_1  and  C2_2
REMARK    2  A    between atoms: C4_4  and  O3_30
REMARK    3  A    between atoms: C8_9  and  C11_12
REMARK    4  A    between atoms: C8_9  and  C12_13
REMARK    5  A    between atoms: C12_13  and  C13_14
REMARK    6  A    between atoms: C13_14  and  C14_15
REMARK    7  A    between atoms: C15_16  and  C16_17
REMARK    8  A    between atoms: C15_16  and  C17_18
REMARK    9  A    between atoms: C17_18  and  C18_19
REMARK   10  A    between atoms: C18_19  and  C19_20
REMARK   11  A    between atoms: C20_21  and  C21_22
REMARK   12  A    between atoms: C20_21  and  C27_28
REMARK   13  A    between atoms: C21_22  and  C22_23
REMARK   14  A    between atoms: C22_23  and  C23_24
REMARK   15  A    between atoms: C24_25  and  C25_26
REMARK   16  A    between atoms: C24_25  and  C26_27
REMARK                            x       y       z     vdW  Elec       q    Type
REMARK                         _______ _______ _______ _____ _____    ______ ____
ROOT
ATOM     13  C   UNL     1      45.318  16.232  19.332  0.00  0.00    +0.059 C 
ENDROOT
BRANCH  13  14
ATOM     14  C   UNL     1      46.547  15.979  18.498  0.00  0.00    -0.061 C 
ATOM     15  C   UNL     1      47.603  15.423  19.039  0.00  0.00    -0.122 C 
ATOM     29  C   UNL     1      47.550  14.934  20.463  0.00  0.00    +0.070 C 
BRANCH  15  16
ATOM     16  C   UNL     1      48.870  15.272  18.236  0.00  0.00    +0.052 C 
BRANCH  16  17
ATOM     17  C   UNL     1      49.944  16.205  18.800  0.00  0.00    +0.062 C 
BRANCH  17  18
ATOM     18  C   UNL     1      49.470  17.632  18.708  0.00  0.00    -0.077 C 
ATOM     19  C   UNL     1      49.482  18.408  19.790  0.00  0.00    -0.130 C 
BRANCH  19  20
ATOM     20  C   UNL     1      50.085  17.920  21.037  0.00  0.00    +0.496 C 
ATOM     21  O   UNL     1      51.424  17.950  21.195  0.00  0.00    -0.761 OA
ATOM     22  O   UNL     1      49.378  17.489  21.926  0.00  0.00    -0.636 OA
ENDBRANCH  19  20
BRANCH  19  23
ATOM     23  C   UNL     1      48.877  19.787  19.734  0.00  0.00    +0.060 C 
BRANCH  23  24
ATOM     24  C   UNL     1      49.991  20.828  19.599  0.00  0.00    +0.061 C 
BRANCH  24  25
ATOM     25  C   UNL     1      50.235  21.117  18.140  0.00  0.00    -0.040 C 
ATOM     26  C   UNL     1      51.390  20.822  17.599  0.00  0.00    -0.156 C 
ATOM     27  C   UNL     1      51.675  21.214  16.171  0.00  0.00    +0.066 C 
ATOM     28  C   UNL     1      52.434  20.089  18.402  0.00  0.00    +0.070 C 
ENDBRANCH  24  25
ENDBRANCH  23  24
ENDBRANCH  19  23
ENDBRANCH  17  18
ENDBRANCH  16  17
ENDBRANCH  15  16
ENDBRANCH  13  14
BRANCH  13  12
ATOM     12  C   UNL     1      45.094  17.740  19.465  0.00  0.00    +0.017 C 
BRANCH  12  11
ATOM      1  C   UNL     1      41.079  19.535  19.064  0.00  0.00    +0.104 C 
ATOM      2  C   UNL     1      42.201  20.450  19.481  0.00  0.00    -0.094 A 
ATOM      3  C   UNL     1      42.202  21.773  19.078  0.00  0.00    +0.020 A 
ATOM      4  C   UNL     1      43.231  22.623  19.458  0.00  0.00    +0.077 A 
ATOM      7  C   UNL     1      44.273  22.150  20.241  0.00  0.00    +0.029 A 
ATOM      8  C   UNL     1      44.279  20.820  20.643  0.00  0.00    -0.110 A 
ATOM      9  C   UNL     1      45.366  20.269  21.480  0.00  0.00    +0.030 C 
ATOM     10  C   UNL     1      45.469  18.948  21.592  0.00  0.00    -0.040 C 
ATOM     11  C   UNL     1      44.517  18.049  20.848  0.00  0.00    +0.152 C 
ATOM     30  C   UNL     1      44.345  16.744  21.626  0.00  0.00    +0.081 C 
ATOM     31  O   UNL     1      43.244  18.678  20.696  0.00  0.00    -0.299 OA
ATOM     32  C   UNL     1      43.231  19.967  20.266  0.00  0.00    +0.129 A 
BRANCH   4   5
ATOM      5  O   UNL     1      43.219  23.924  19.061  0.00  0.00    -0.496 OA
ATOM      6  H   UNL     1      43.970  24.441  19.386  0.00  0.00    +0.386 HD
ENDBRANCH   4   5
ENDBRANCH  12  11
ENDBRANCH  13  12
TORSDOF 11
ENDMDL
MODEL 8
REMARK VINA RESULT:      -6.1      2.294      4.235
REMARK  Name = ZINC14691443
REMARK  16 active torsions:
REMARK  status: ('A' for Active; 'I' for Inactive)
REMARK    1  A    between atoms: C1_1  and  C2_2
REMARK    2  A    between atoms: C4_4  and  O3_30
REMARK    3  A    between atoms: C8_9  and  C11_12
REMARK    4  A    between atoms: C8_9  and  C12_13
REMARK    5  A    between atoms: C12_13  and  C13_14
REMARK    6  A    between atoms: C13_14  and  C14_15
REMARK    7  A    between atoms: C15_16  and  C16_17
REMARK    8  A    between atoms: C15_16  and  C17_18
REMARK    9  A    between atoms: C17_18  and  C18_19
REMARK   10  A    between atoms: C18_19  and  C19_20
REMARK   11  A    between atoms: C20_21  and  C21_22
REMARK   12  A    between atoms: C20_21  and  C27_28
REMARK   13  A    between atoms: C21_22  and  C22_23
REMARK   14  A    between atoms: C22_23  and  C23_24
REMARK   15  A    between atoms: C24_25  and  C25_26
REMARK   16  A    between atoms: C24_25  and  C26_27
REMARK                            x       y       z     vdW  Elec       q    Type
REMARK                         _______ _______ _______ _____ _____    ______ ____
ROOT
ATOM     13  C   UNL     1      47.831  16.088  19.842  0.00  0.00    +0.059 C 
ENDROOT
BRANCH  13  14
ATOM     14  C   UNL     1      49.124  16.773  20.201  0.00  0.00    -0.061 C 
ATOM     15  C   UNL     1      50.268  16.199  19.924  0.00  0.00    -0.122 C 
ATOM     29  C   UNL     1      50.295  14.909  19.146  0.00  0.00    +0.070 C 
BRANCH  15  16
ATOM     16  C   UNL     1      51.558  16.830  20.384  0.00  0.00    +0.052 C 
BRANCH  16  17
ATOM     17  C   UNL     1      52.521  16.941  19.201  0.00  0.00    +0.062 C 
BRANCH  17  18
ATOM     18  C   UNL     1      52.567  18.370  18.724  0.00  0.00    -0.077 C 
ATOM     19  C   UNL     1      52.005  18.703  17.564  0.00  0.00    -0.130 C 
BRANCH  19  20
ATOM     20  C   UNL     1      51.220  17.711  16.817  0.00  0.00    +0.496 C 
ATOM     21  O   UNL     1      51.848  16.778  16.073  0.00  0.00    -0.761 OA
ATOM     22  O   UNL     1      50.007  17.730  16.871  0.00  0.00    -0.636 OA
ENDBRANCH  19  20
BRANCH  19  23
ATOM     23  C   UNL     1      52.172  20.098  17.019  0.00  0.00    +0.060 C 
BRANCH  23  24
ATOM     24  C   UNL     1      51.716  21.114  18.069  0.00  0.00    +0.061 C 
BRANCH  24  25
ATOM     25  C   UNL     1      50.232  20.975  18.292  0.00  0.00    -0.040 C 
ATOM     26  C   UNL     1      49.769  20.747  19.495  0.00  0.00    -0.156 C 
ATOM     27  C   UNL     1      48.297  20.495  19.701  0.00  0.00    +0.066 C 
ATOM     28  C   UNL     1      50.708  20.739  20.675  0.00  0.00    +0.070 C 
ENDBRANCH  24  25
ENDBRANCH  23  24
ENDBRANCH  19  23
ENDBRANCH  17  18
ENDBRANCH  16  17
ENDBRANCH  15  16
ENDBRANCH  13  14
BRANCH  13  12
ATOM     12  C   UNL     1      46.891  16.105  21.049  0.00  0.00    +0.017 C 
BRANCH  12  11
ATOM      1  C   UNL     1      45.677  18.713  17.699  0.00  0.00    +0.104 C 
ATOM      2  C   UNL     1      45.036  18.972  19.037  0.00  0.00    -0.094 A 
ATOM      3  C   UNL     1      44.702  20.262  19.407  0.00  0.00    +0.020 A 
ATOM      4  C   UNL     1      44.110  20.510  20.638  0.00  0.00    +0.077 A 
ATOM      7  C   UNL     1      43.855  19.465  21.512  0.00  0.00    +0.029 A 
ATOM      8  C   UNL     1      44.195  18.168  21.147  0.00  0.00    -0.110 A 
ATOM      9  C   UNL     1      43.941  17.020  22.043  0.00  0.00    +0.030 C 
ATOM     10  C   UNL     1      44.537  15.863  21.771  0.00  0.00    -0.040 C 
ATOM     11  C   UNL     1      45.472  15.752  20.597  0.00  0.00    +0.152 C 
ATOM     30  C   UNL     1      45.454  14.315  20.072  0.00  0.00    +0.081 C 
ATOM     31  O   UNL     1      45.078  16.640  19.551  0.00  0.00    -0.299 OA
ATOM     32  C   UNL     1      44.782  17.920  19.897  0.00  0.00    +0.129 A 
BRANCH   4   5
ATOM      5  O   UNL     1      43.780  21.782  20.989  0.00  0.00    -0.496 OA
ATOM      6  H   UNL     1      42.841  21.904  21.186  0.00  0.00    +0.386 HD
ENDBRANCH   4   5
ENDBRANCH  12  11
ENDBRANCH  13  12
TORSDOF 11
ENDMDL
MODEL 9
REMARK VINA RESULT:      -5.9      2.237      8.074
REMARK  Name = ZINC14691443
REMARK  16 active torsions:
REMARK  status: ('A' for Active; 'I' for Inactive)
REMARK    1  A    between atoms: C1_1  and  C2_2
REMARK    2  A    between atoms: C4_4  and  O3_30
REMARK    3  A    between atoms: C8_9  and  C11_12
REMARK    4  A    between atoms: C8_9  and  C12_13
REMARK    5  A    between atoms: C12_13  and  C13_14
REMARK    6  A    between atoms: C13_14  and  C14_15
REMARK    7  A    between atoms: C15_16  and  C16_17
REMARK    8  A    between atoms: C15_16  and  C17_18
REMARK    9  A    between atoms: C17_18  and  C18_19
REMARK   10  A    between atoms: C18_19  and  C19_20
REMARK   11  A    between atoms: C20_21  and  C21_22
REMARK   12  A    between atoms: C20_21  and  C27_28
REMARK   13  A    between atoms: C21_22  and  C22_23
REMARK   14  A    between atoms: C22_23  and  C23_24
REMARK   15  A    between atoms: C24_25  and  C25_26
REMARK   16  A    between atoms: C24_25  and  C26_27
REMARK                            x       y       z     vdW  Elec       q    Type
REMARK                         _______ _______ _______ _____ _____    ______ ____
ROOT
ATOM     13  C   UNL     1      48.845  16.420  17.369  0.00  0.00    +0.059 C 
ENDROOT
BRANCH  13  14
ATOM     14  C   UNL     1      47.833  16.034  18.416  0.00  0.00    -0.061 C 
ATOM     15  C   UNL     1      46.774  15.339  18.080  0.00  0.00    -0.122 C 
ATOM     29  C   UNL     1      46.625  14.829  16.670  0.00  0.00    +0.070 C 
BRANCH  15  16
ATOM     16  C   UNL     1      45.707  15.050  19.104  0.00  0.00    +0.052 C 
BRANCH  16  17
ATOM     17  C   UNL     1      45.482  16.291  19.970  0.00  0.00    +0.062 C 
BRANCH  17  18
ATOM     18  C   UNL     1      45.276  17.491  19.083  0.00  0.00    -0.077 C 
ATOM     19  C   UNL     1      44.606  18.548  19.537  0.00  0.00    -0.130 C 
BRANCH  19  20
ATOM     20  C   UNL     1      44.187  18.602  20.945  0.00  0.00    +0.496 C 
ATOM     21  O   UNL     1      42.928  18.264  21.287  0.00  0.00    -0.761 OA
ATOM     22  O   UNL     1      44.977  18.951  21.800  0.00  0.00    -0.636 OA
ENDBRANCH  19  20
BRANCH  19  23
ATOM     23  C   UNL     1      44.277  19.688  18.609  0.00  0.00    +0.060 C 
BRANCH  23  24
ATOM     24  C   UNL     1      45.121  20.910  18.981  0.00  0.00    +0.061 C 
BRANCH  24  25
ATOM     25  C   UNL     1      46.580  20.593  18.777  0.00  0.00    -0.040 C 
ATOM     26  C   UNL     1      47.462  20.968  19.669  0.00  0.00    -0.156 C 
ATOM     27  C   UNL     1      48.932  20.753  19.412  0.00  0.00    +0.066 C 
ATOM     28  C   UNL     1      47.008  21.614  20.953  0.00  0.00    +0.070 C 
ENDBRANCH  24  25
ENDBRANCH  23  24
ENDBRANCH  19  23
ENDBRANCH  17  18
ENDBRANCH  16  17
ENDBRANCH  15  16
ENDBRANCH  13  14
BRANCH  13  12
ATOM     12  C   UNL     1      49.707  17.571  17.891  0.00  0.00    +0.017 C 
BRANCH  12  11
ATOM      1  C   UNL     1      52.071  18.080  21.586  0.00  0.00    +0.104 C 
ATOM      2  C   UNL     1      52.231  19.131  20.518  0.00  0.00    -0.094 A 
ATOM      3  C   UNL     1      52.466  20.448  20.872  0.00  0.00    +0.020 A 
ATOM      4  C   UNL     1      52.616  21.422  19.895  0.00  0.00    +0.077 A 
ATOM      7  C   UNL     1      52.524  21.084  18.554  0.00  0.00    +0.029 A 
ATOM      8  C   UNL     1      52.282  19.765  18.194  0.00  0.00    -0.110 A 
ATOM      9  C   UNL     1      52.179  19.355  16.778  0.00  0.00    +0.030 C 
ATOM     10  C   UNL     1      51.669  18.157  16.502  0.00  0.00    -0.040 C 
ATOM     11  C   UNL     1      51.182  17.269  17.616  0.00  0.00    +0.152 C 
ATOM     30  C   UNL     1      51.326  15.806  17.193  0.00  0.00    +0.081 C 
ATOM     31  O   UNL     1      51.936  17.492  18.807  0.00  0.00    -0.299 OA
ATOM     32  C   UNL     1      52.143  18.781  19.184  0.00  0.00    +0.129 A 
BRANCH   4   5
ATOM      5  O   UNL     1      52.852  22.713  20.254  0.00  0.00    -0.496 OA
ATOM      6  H   UNL     1      53.789  22.953  20.262  0.00  0.00    +0.386 HD
ENDBRANCH   4   5
ENDBRANCH  12  11
ENDBRANCH  13  12
TORSDOF 11
ENDMDL
