MODEL 1
REMARK VINA RESULT:      -4.8      0.000      0.000
REMARK  Name = ZINC00001969
REMARK  5 active torsions:
REMARK  status: ('A' for Active; 'I' for Inactive)
REMARK    1  A    between atoms: C1_1  and  C2_2
REMARK    2  A    between atoms: C6_6  and  C14_18
REMARK    3  A    between atoms: C6_6  and  C15_19
REMARK    4  A    between atoms: C10_11  and  C13_16
REMARK    5  A    between atoms: C11_12  and  C12_14
REMARK                            x       y       z     vdW  Elec       q    Type
REMARK                         _______ _______ _______ _____ _____    ______ ____
ROOT
ATOM      1  C   UNL     1      45.628  19.536  21.453  0.00  0.00    +0.036 C 
ATOM      2  C   UNL     1      44.721  19.244  20.246  0.00  0.00    -0.028 C 
ATOM      3  C   UNL     1      43.913  17.979  20.532  0.00  0.00    +0.014 C 
ATOM      4  C   UNL     1      44.841  16.763  20.574  0.00  0.00    +0.011 C 
ATOM      5  C   UNL     1      45.465  16.585  19.193  0.00  0.00    +0.016 C 
ATOM      6  C   UNL     1      46.300  17.807  18.813  0.00  0.00    -0.051 C 
ATOM      7  C   UNL     1      47.602  17.795  19.612  0.00  0.00    +0.026 C 
ATOM      8  C   UNL     1      46.677  17.643  17.323  0.00  0.00    +0.016 C 
ATOM      9  C   UNL     1      43.762  20.436  20.100  0.00  0.00    +0.004 C 
ATOM     12  C   UNL     1      44.492  21.637  19.574  0.00  0.00    -0.216 C 
ATOM     15  C   UNL     1      45.677  21.588  18.998  0.00  0.00    +0.071 C 
ATOM     16  C   UNL     1      46.454  20.315  18.802  0.00  0.00    +0.082 C 
ATOM     17  C   UNL     1      45.528  19.105  18.961  0.00  0.00    +0.008 C 
ENDROOT
BRANCH   9  10
ATOM     10  C   UNL     1      42.616  20.124  19.180  0.00  0.00    +0.443 C 
ATOM     11  O   UNL     1      41.481  20.325  19.541  0.00  0.00    -0.443 OA
ENDBRANCH   9  10
BRANCH  12  13
ATOM     13  C   UNL     1      43.846  22.942  19.710  0.00  0.00    +0.461 C 
ATOM     14  O   UNL     1      44.349  23.924  19.202  0.00  0.00    -0.449 OA
ENDBRANCH  12  13
TORSDOF 2
ENDMDL
MODEL 2
REMARK VINA RESULT:      -4.7      1.275      3.509
REMARK  Name = ZINC00001969
REMARK  5 active torsions:
REMARK  status: ('A' for Active; 'I' for Inactive)
REMARK    1  A    between atoms: C1_1  and  C2_2
REMARK    2  A    between atoms: C6_6  and  C14_18
REMARK    3  A    between atoms: C6_6  and  C15_19
REMARK    4  A    between atoms: C10_11  and  C13_16
REMARK    5  A    between atoms: C11_12  and  C12_14
REMARK                            x       y       z     vdW  Elec       q    Type
REMARK                         _______ _______ _______ _____ _____    ______ ____
ROOT
ATOM      1  C   UNL     1      45.476  19.007  18.134  0.00  0.00    +0.036 C 
ATOM      2  C   UNL     1      45.365  20.082  19.228  0.00  0.00    -0.028 C 
ATOM      3  C   UNL     1      46.379  21.187  18.939  0.00  0.00    +0.014 C 
ATOM      4  C   UNL     1      47.802  20.652  19.119  0.00  0.00    +0.011 C 
ATOM      5  C   UNL     1      47.985  20.254  20.582  0.00  0.00    +0.016 C 
ATOM      6  C   UNL     1      47.009  19.146  20.970  0.00  0.00    -0.051 C 
ATOM      7  C   UNL     1      47.474  17.827  20.355  0.00  0.00    +0.026 C 
ATOM      8  C   UNL     1      47.098  18.991  22.505  0.00  0.00    +0.016 C 
ATOM      9  C   UNL     1      43.944  20.664  19.148  0.00  0.00    +0.004 C 
ATOM     12  C   UNL     1      42.942  19.676  19.668  0.00  0.00    -0.216 C 
ATOM     15  C   UNL     1      43.251  18.624  20.400  0.00  0.00    +0.071 C 
ATOM     16  C   UNL     1      44.658  18.274  20.799  0.00  0.00    +0.082 C 
ATOM     17  C   UNL     1      45.573  19.489  20.616  0.00  0.00    +0.008 C 
ENDROOT
BRANCH   9  10
ATOM     10  C   UNL     1      43.817  21.941  19.929  0.00  0.00    +0.443 C 
ATOM     11  O   UNL     1      43.223  22.880  19.457  0.00  0.00    -0.443 OA
ENDBRANCH   9  10
BRANCH  12  13
ATOM     13  C   UNL     1      41.532  19.898  19.344  0.00  0.00    +0.461 C 
ATOM     14  O   UNL     1      41.206  20.160  18.204  0.00  0.00    -0.449 OA
ENDBRANCH  12  13
TORSDOF 2
ENDMDL
MODEL 3
REMARK VINA RESULT:      -4.6      3.802      5.352
REMARK  Name = ZINC00001969
REMARK  5 active torsions:
REMARK  status: ('A' for Active; 'I' for Inactive)
REMARK    1  A    between atoms: C1_1  and  C2_2
REMARK    2  A    between atoms: C6_6  and  C14_18
REMARK    3  A    between atoms: C6_6  and  C15_19
REMARK    4  A    between atoms: C10_11  and  C13_16
REMARK    5  A    between atoms: C11_12  and  C12_14
REMARK                            x       y       z     vdW  Elec       q    Type
REMARK                         _______ _______ _______ _____ _____    ______ ____
ROOT
ATOM      1  C   UNL     1      50.548  17.971  19.774  0.00  0.00    +0.036 C 
ATOM      2  C   UNL     1      49.671  18.442  18.601  0.00  0.00    -0.028 C 
ATOM      3  C   UNL     1      49.752  17.409  17.479  0.00  0.00    +0.014 C 
ATOM      4  C   UNL     1      51.161  17.397  16.879  0.00  0.00    +0.011 C 
ATOM      5  C   UNL     1      51.425  18.760  16.245  0.00  0.00    +0.016 C 
ATOM      6  C   UNL     1      51.366  19.868  17.295  0.00  0.00    -0.051 C 
ATOM      7  C   UNL     1      52.625  19.812  18.157  0.00  0.00    +0.026 C 
ATOM      8  C   UNL     1      51.396  21.210  16.528  0.00  0.00    +0.016 C 
ATOM      9  C   UNL     1      48.225  18.516  19.118  0.00  0.00    +0.004 C 
ATOM     12  C   UNL     1      48.056  19.689  20.039  0.00  0.00    -0.216 C 
ATOM     15  C   UNL     1      48.905  20.695  20.119  0.00  0.00    +0.071 C 
ATOM     16  C   UNL     1      50.162  20.789  19.299  0.00  0.00    +0.082 C 
ATOM     17  C   UNL     1      50.087  19.823  18.112  0.00  0.00    +0.008 C 
ENDROOT
BRANCH   9  10
ATOM     10  C   UNL     1      47.234  18.635  17.995  0.00  0.00    +0.443 C 
ATOM     11  O   UNL     1      46.271  17.908  17.962  0.00  0.00    -0.443 OA
ENDBRANCH   9  10
BRANCH  12  13
ATOM     13  C   UNL     1      46.874  19.716  20.900  0.00  0.00    +0.461 C 
ATOM     14  O   UNL     1      46.047  20.596  20.769  0.00  0.00    -0.449 OA
ENDBRANCH  12  13
TORSDOF 2
ENDMDL
MODEL 4
REMARK VINA RESULT:      -4.6      4.067      5.876
REMARK  Name = ZINC00001969
REMARK  5 active torsions:
REMARK  status: ('A' for Active; 'I' for Inactive)
REMARK    1  A    between atoms: C1_1  and  C2_2
REMARK    2  A    between atoms: C6_6  and  C14_18
REMARK    3  A    between atoms: C6_6  and  C15_19
REMARK    4  A    between atoms: C10_11  and  C13_16
REMARK    5  A    between atoms: C11_12  and  C12_14
REMARK                            x       y       z     vdW  Elec       q    Type
REMARK                         _______ _______ _______ _____ _____    ______ ____
ROOT
ATOM      1  C   UNL     1      50.277  18.800  20.569  0.00  0.00    +0.036 C 
ATOM      2  C   UNL     1      50.055  18.491  19.079  0.00  0.00    -0.028 C 
ATOM      3  C   UNL     1      51.125  17.504  18.615  0.00  0.00    +0.014 C 
ATOM      4  C   UNL     1      52.500  18.176  18.631  0.00  0.00    +0.011 C 
ATOM      5  C   UNL     1      52.487  19.321  17.621  0.00  0.00    +0.016 C 
ATOM      6  C   UNL     1      51.442  20.369  18.001  0.00  0.00    -0.051 C 
ATOM      7  C   UNL     1      51.948  21.175  19.196  0.00  0.00    +0.026 C 
ATOM      8  C   UNL     1      51.333  21.343  16.806  0.00  0.00    +0.016 C 
ATOM      9  C   UNL     1      48.671  17.834  18.955  0.00  0.00    +0.004 C 
ATOM     12  C   UNL     1      47.586  18.850  19.161  0.00  0.00    -0.216 C 
ATOM     15  C   UNL     1      47.775  20.154  19.107  0.00  0.00    +0.071 C 
ATOM     16  C   UNL     1      49.111  20.790  18.840  0.00  0.00    +0.082 C 
ATOM     17  C   UNL     1      50.071  19.760  18.237  0.00  0.00    +0.008 C 
ENDROOT
BRANCH   9  10
ATOM     10  C   UNL     1      48.478  17.184  17.614  0.00  0.00    +0.443 C 
ATOM     11  O   UNL     1      48.074  16.048  17.547  0.00  0.00    -0.443 OA
ENDBRANCH   9  10
BRANCH  12  13
ATOM     13  C   UNL     1      46.235  18.361  19.437  0.00  0.00    +0.461 C 
ATOM     14  O   UNL     1      45.369  18.460  18.592  0.00  0.00    -0.449 OA
ENDBRANCH  12  13
TORSDOF 2
ENDMDL
MODEL 5
REMARK VINA RESULT:      -4.5     22.281     24.072
REMARK  Name = ZINC00001969
REMARK  5 active torsions:
REMARK  status: ('A' for Active; 'I' for Inactive)
REMARK    1  A    between atoms: C1_1  and  C2_2
REMARK    2  A    between atoms: C6_6  and  C14_18
REMARK    3  A    between atoms: C6_6  and  C15_19
REMARK    4  A    between atoms: C10_11  and  C13_16
REMARK    5  A    between atoms: C11_12  and  C12_14
REMARK                            x       y       z     vdW  Elec       q    Type
REMARK                         _______ _______ _______ _____ _____    ______ ____
ROOT
ATOM      1  C   UNL     1      42.282  35.244   0.584  0.00  0.00    +0.036 C 
ATOM      2  C   UNL     1      41.408  34.064   1.040  0.00  0.00    -0.028 C 
ATOM      3  C   UNL     1      41.723  33.753   2.503  0.00  0.00    +0.014 C 
ATOM      4  C   UNL     1      43.147  33.203   2.626  0.00  0.00    +0.011 C 
ATOM      5  C   UNL     1      43.219  31.880   1.868  0.00  0.00    +0.016 C 
ATOM      6  C   UNL     1      42.917  32.087   0.385  0.00  0.00    -0.051 C 
ATOM      7  C   UNL     1      44.117  32.755  -0.284  0.00  0.00    +0.026 C 
ATOM      8  C   UNL     1      42.770  30.681  -0.240  0.00  0.00    +0.016 C 
ATOM      9  C   UNL     1      39.943  34.512   0.921  0.00  0.00    +0.004 C 
ATOM     12  C   UNL     1      39.531  34.583  -0.520  0.00  0.00    -0.216 C 
ATOM     15  C   UNL     1      40.196  34.018  -1.508  0.00  0.00    +0.071 C 
ATOM     16  C   UNL     1      41.465  33.235  -1.315  0.00  0.00    +0.082 C 
ATOM     17  C   UNL     1      41.619  32.840   0.157  0.00  0.00    +0.008 C 
ENDROOT
BRANCH   9  10
ATOM     10  C   UNL     1      39.012  33.583   1.648  0.00  0.00    +0.443 C 
ATOM     11  O   UNL     1      37.829  33.608   1.410  0.00  0.00    -0.443 OA
ENDBRANCH   9  10
BRANCH  12  13
ATOM     13  C   UNL     1      38.312  35.324  -0.846  0.00  0.00    +0.461 C 
ATOM     14  O   UNL     1      37.540  34.889  -1.675  0.00  0.00    -0.449 OA
ENDBRANCH  12  13
TORSDOF 2
ENDMDL
MODEL 6
REMARK VINA RESULT:      -4.5     20.975     23.007
REMARK  Name = ZINC00001969
REMARK  5 active torsions:
REMARK  status: ('A' for Active; 'I' for Inactive)
REMARK    1  A    between atoms: C1_1  and  C2_2
REMARK    2  A    between atoms: C6_6  and  C14_18
REMARK    3  A    between atoms: C6_6  and  C15_19
REMARK    4  A    between atoms: C10_11  and  C13_16
REMARK    5  A    between atoms: C11_12  and  C12_14
REMARK                            x       y       z     vdW  Elec       q    Type
REMARK                         _______ _______ _______ _____ _____    ______ ____
ROOT
ATOM      1  C   UNL     1      54.789  32.735   6.662  0.00  0.00    +0.036 C 
ATOM      2  C   UNL     1      54.861  33.820   5.573  0.00  0.00    -0.028 C 
ATOM      3  C   UNL     1      54.778  35.192   6.239  0.00  0.00    +0.014 C 
ATOM      4  C   UNL     1      53.387  35.397   6.846  0.00  0.00    +0.011 C 
ATOM      5  C   UNL     1      52.363  35.392   5.715  0.00  0.00    +0.016 C 
ATOM      6  C   UNL     1      52.369  34.051   4.982  0.00  0.00    -0.051 C 
ATOM      7  C   UNL     1      51.691  32.997   5.857  0.00  0.00    +0.026 C 
ATOM      8  C   UNL     1      51.494  34.229   3.720  0.00  0.00    +0.016 C 
ATOM      9  C   UNL     1      56.224  33.675   4.878  0.00  0.00    +0.004 C 
ATOM     12  C   UNL     1      56.243  32.452   4.009  0.00  0.00    -0.216 C 
ATOM     15  C   UNL     1      55.163  31.800   3.625  0.00  0.00    +0.071 C 
ATOM     16  C   UNL     1      53.768  32.199   4.019  0.00  0.00    +0.082 C 
ATOM     17  C   UNL     1      53.760  33.642   4.535  0.00  0.00    +0.008 C 
ENDROOT
BRANCH   9  10
ATOM     10  C   UNL     1      56.553  34.874   4.035  0.00  0.00    +0.443 C 
ATOM     11  O   UNL     1      57.641  35.390   4.120  0.00  0.00    -0.443 OA
ENDBRANCH   9  10
BRANCH  12  13
ATOM     13  C   UNL     1      57.544  31.954   3.560  0.00  0.00    +0.461 C 
ATOM     14  O   UNL     1      58.445  31.804   4.359  0.00  0.00    -0.449 OA
ENDBRANCH  12  13
TORSDOF 2
ENDMDL
MODEL 7
REMARK VINA RESULT:      -4.3     20.872     22.882
REMARK  Name = ZINC00001969
REMARK  5 active torsions:
REMARK  status: ('A' for Active; 'I' for Inactive)
REMARK    1  A    between atoms: C1_1  and  C2_2
REMARK    2  A    between atoms: C6_6  and  C14_18
REMARK    3  A    between atoms: C6_6  and  C15_19
REMARK    4  A    between atoms: C10_11  and  C13_16
REMARK    5  A    between atoms: C11_12  and  C12_14
REMARK                            x       y       z     vdW  Elec       q    Type
REMARK                         _______ _______ _______ _____ _____    ______ ____
ROOT
ATOM      1  C   UNL     1      54.546  31.513   3.579  0.00  0.00    +0.036 C 
ATOM      2  C   UNL     1      54.271  33.026   3.549  0.00  0.00    -0.028 C 
ATOM      3  C   UNL     1      54.455  33.532   2.119  0.00  0.00    +0.014 C 
ATOM      4  C   UNL     1      55.929  33.437   1.715  0.00  0.00    +0.011 C 
ATOM      5  C   UNL     1      56.736  34.364   2.620  0.00  0.00    +0.016 C 
ATOM      6  C   UNL     1      56.616  33.938   4.082  0.00  0.00    -0.051 C 
ATOM      7  C   UNL     1      57.450  32.678   4.308  0.00  0.00    +0.026 C 
ATOM      8  C   UNL     1      57.250  35.065   4.928  0.00  0.00    +0.016 C 
ATOM      9  C   UNL     1      52.808  33.229   3.974  0.00  0.00    +0.004 C 
ATOM     12  C   UNL     1      52.648  32.979   5.445  0.00  0.00    -0.216 C 
ATOM     15  C   UNL     1      53.651  32.938   6.301  0.00  0.00    +0.071 C 
ATOM     16  C   UNL     1      55.089  33.128   5.906  0.00  0.00    +0.082 C 
ATOM     17  C   UNL     1      55.172  33.777   4.521  0.00  0.00    +0.008 C 
ENDROOT
BRANCH   9  10
ATOM     10  C   UNL     1      52.321  34.616   3.662  0.00  0.00    +0.443 C 
ATOM     11  O   UNL     1      51.276  34.771   3.077  0.00  0.00    -0.443 OA
ENDBRANCH   9  10
BRANCH  12  13
ATOM     13  C   UNL     1      51.295  32.770   5.959  0.00  0.00    +0.461 C 
ATOM     14  O   UNL     1      50.826  33.546   6.767  0.00  0.00    -0.449 OA
ENDBRANCH  12  13
TORSDOF 2
ENDMDL
MODEL 8
REMARK VINA RESULT:      -4.3      2.810      4.308
REMARK  Name = ZINC00001969
REMARK  5 active torsions:
REMARK  status: ('A' for Active; 'I' for Inactive)
REMARK    1  A    between atoms: C1_1  and  C2_2
REMARK    2  A    between atoms: C6_6  and  C14_18
REMARK    3  A    between atoms: C6_6  and  C15_19
REMARK    4  A    between atoms: C10_11  and  C13_16
REMARK    5  A    between atoms: C11_12  and  C12_14
REMARK                            x       y       z     vdW  Elec       q    Type
REMARK                         _______ _______ _______ _____ _____    ______ ____
ROOT
ATOM      1  C   UNL     1      47.882  18.717  20.955  0.00  0.00    +0.036 C 
ATOM      2  C   UNL     1      48.137  18.513  19.452  0.00  0.00    -0.028 C 
ATOM      3  C   UNL     1      49.007  17.270  19.264  0.00  0.00    +0.014 C 
ATOM      4  C   UNL     1      50.408  17.523  19.825  0.00  0.00    +0.011 C 
ATOM      5  C   UNL     1      51.056  18.643  19.016  0.00  0.00    +0.016 C 
ATOM      6  C   UNL     1      50.255  19.937  19.141  0.00  0.00    -0.051 C 
ATOM      7  C   UNL     1      50.489  20.543  20.524  0.00  0.00    +0.026 C 
ATOM      8  C   UNL     1      50.838  20.924  18.104  0.00  0.00    +0.016 C 
ATOM      9  C   UNL     1      46.770  18.279  18.789  0.00  0.00    +0.004 C 
ATOM     12  C   UNL     1      45.987  19.559  18.735  0.00  0.00    -0.216 C 
ATOM     15  C   UNL     1      46.514  20.756  18.904  0.00  0.00    +0.071 C 
ATOM     16  C   UNL     1      47.973  20.990  19.184  0.00  0.00    +0.082 C 
ATOM     17  C   UNL     1      48.783  19.740  18.824  0.00  0.00    +0.008 C 
ENDROOT
BRANCH   9  10
ATOM     10  C   UNL     1      46.909  17.737  17.395  0.00  0.00    +0.443 C 
ATOM     11  O   UNL     1      46.282  16.761  17.063  0.00  0.00    -0.443 OA
ENDBRANCH   9  10
BRANCH  12  13
ATOM     13  C   UNL     1      44.550  19.469  18.476  0.00  0.00    +0.461 C 
ATOM     14  O   UNL     1      43.787  20.243  19.017  0.00  0.00    -0.449 OA
ENDBRANCH  12  13
TORSDOF 2
ENDMDL
MODEL 9
REMARK VINA RESULT:      -4.3     20.896     23.012
REMARK  Name = ZINC00001969
REMARK  5 active torsions:
REMARK  status: ('A' for Active; 'I' for Inactive)
REMARK    1  A    between atoms: C1_1  and  C2_2
REMARK    2  A    between atoms: C6_6  and  C14_18
REMARK    3  A    between atoms: C6_6  and  C15_19
REMARK    4  A    between atoms: C10_11  and  C13_16
REMARK    5  A    between atoms: C11_12  and  C12_14
REMARK                            x       y       z     vdW  Elec       q    Type
REMARK                         _______ _______ _______ _____ _____    ______ ____
ROOT
ATOM      1  C   UNL     1      54.547  35.130   3.539  0.00  0.00    +0.036 C 
ATOM      2  C   UNL     1      54.396  33.599   3.565  0.00  0.00    -0.028 C 
ATOM      3  C   UNL     1      53.715  33.148   2.274  0.00  0.00    +0.014 C 
ATOM      4  C   UNL     1      52.267  33.642   2.246  0.00  0.00    +0.011 C 
ATOM      5  C   UNL     1      51.511  32.983   3.397  0.00  0.00    +0.016 C 
ATOM      6  C   UNL     1      52.120  33.376   4.742  0.00  0.00    -0.051 C 
ATOM      7  C   UNL     1      51.738  34.819   5.065  0.00  0.00    +0.026 C 
ATOM      8  C   UNL     1      51.457  32.477   5.810  0.00  0.00    +0.016 C 
ATOM      9  C   UNL     1      55.812  33.005   3.626  0.00  0.00    +0.004 C 
ATOM     12  C   UNL     1      56.413  33.218   4.984  0.00  0.00    -0.216 C 
ATOM     15  C   UNL     1      55.720  33.544   6.058  0.00  0.00    +0.071 C 
ATOM     16  C   UNL     1      54.231  33.753   6.052  0.00  0.00    +0.082 C 
ATOM     17  C   UNL     1      53.618  33.136   4.791  0.00  0.00    +0.008 C 
ENDROOT
BRANCH   9  10
ATOM     10  C   UNL     1      55.817  31.535   3.318  0.00  0.00    +0.443 C 
ATOM     11  O   UNL     1      56.601  31.089   2.517  0.00  0.00    -0.443 OA
ENDBRANCH   9  10
BRANCH  12  13
ATOM     13  C   UNL     1      57.860  33.051   5.124  0.00  0.00    +0.461 C 
ATOM     14  O   UNL     1      58.502  33.846   5.780  0.00  0.00    -0.449 OA
ENDBRANCH  12  13
TORSDOF 2
ENDMDL
