MODEL 1
REMARK VINA RESULT:      -5.7      0.000      0.000
REMARK  Name = ZINC00056792
REMARK  8 active torsions:
REMARK  status: ('A' for Active; 'I' for Inactive)
REMARK    1  A    between atoms: C1_1  and  N1_2
REMARK    2  A    between atoms: C6_7  and  O4_25
REMARK    3  A    between atoms: C7_8  and  O3_23
REMARK    4  A    between atoms: C14_16  and  O2_22
REMARK    5  A    between atoms: C15_17  and  O1_20
REMARK    6  A    between atoms: O1_20  and  C18_21
REMARK    7  A    between atoms: O3_23  and  C19_24
REMARK    8  A    between atoms: O4_25  and  C20_26
REMARK                            x       y       z     vdW  Elec       q    Type
REMARK                         _______ _______ _______ _____ _____    ______ ____
ROOT
ATOM      1  C   UNL     1      44.356  14.968  22.505  0.00  0.00    +0.328 C 
ATOM      2  N   UNL     1      45.257  16.060  22.109  0.00  0.00    -0.382 N 
ATOM      3  H   UNL     1      45.537  16.578  22.928  0.00  0.00    +0.426 HD
ATOM      4  C   UNL     1      46.443  15.500  21.459  0.00  0.00    +0.267 C 
ATOM      5  C   UNL     1      47.481  16.581  21.208  0.00  0.00    +0.124 C 
ATOM      6  C   UNL     1      46.857  17.876  20.772  0.00  0.00    -0.049 A 
ATOM      7  C   UNL     1      47.698  18.907  20.369  0.00  0.00    -0.051 A 
ATOM      8  C   UNL     1      47.182  20.113  19.931  0.00  0.00    +0.138 A 
ATOM     11  C   UNL     1      45.806  20.303  19.899  0.00  0.00    +0.082 A 
ATOM     14  C   UNL     1      44.962  19.280  20.324  0.00  0.00    +0.009 A 
ATOM     15  C   UNL     1      43.491  19.462  20.298  0.00  0.00    -0.045 A 
ATOM     16  C   UNL     1      42.912  20.480  19.543  0.00  0.00    +0.102 A 
ATOM     19  C   UNL     1      41.528  20.618  19.524  0.00  0.00    +0.111 A 
ATOM     22  C   UNL     1      40.736  19.745  20.252  0.00  0.00    -0.042 A 
ATOM     23  C   UNL     1      41.314  18.740  21.008  0.00  0.00    +0.060 A 
ATOM     24  C   UNL     1      42.686  18.599  21.039  0.00  0.00    -0.107 A 
ATOM     25  C   UNL     1      43.323  17.522  21.874  0.00  0.00    +0.113 C 
ATOM     26  C   UNL     1      45.492  18.060  20.755  0.00  0.00    -0.152 A 
ATOM     27  C   UNL     1      44.559  16.956  21.177  0.00  0.00    +0.241 C 
ENDROOT
BRANCH   8   9
ATOM      9  O   UNL     1      48.019  21.110  19.537  0.00  0.00    -0.296 OA
ATOM     10  C   UNL     1      49.350  20.736  19.174  0.00  0.00    +0.253 C 
ENDBRANCH   8   9
BRANCH  11  12
ATOM     12  O   UNL     1      45.287  21.479  19.455  0.00  0.00    -0.252 OA
ATOM     13  C   UNL     1      45.541  22.640  20.248  0.00  0.00    +0.213 C 
ENDBRANCH  11  12
BRANCH  16  17
ATOM     17  O   UNL     1      43.694  21.333  18.829  0.00  0.00    -0.413 OA
ATOM     18  H   UNL     1      43.289  21.648  18.010  0.00  0.00    +0.373 HD
ENDBRANCH  16  17
BRANCH  19  20
ATOM     20  O   UNL     1      40.952  21.608  18.790  0.00  0.00    -0.302 OA
ATOM     21  C   UNL     1      39.563  21.468  18.488  0.00  0.00    +0.250 C 
ENDBRANCH  19  20
TORSDOF 4
ENDMDL
MODEL 2
REMARK VINA RESULT:      -5.6      3.395      6.961
REMARK  Name = ZINC00056792
REMARK  8 active torsions:
REMARK  status: ('A' for Active; 'I' for Inactive)
REMARK    1  A    between atoms: C1_1  and  N1_2
REMARK    2  A    between atoms: C6_7  and  O4_25
REMARK    3  A    between atoms: C7_8  and  O3_23
REMARK    4  A    between atoms: C14_16  and  O2_22
REMARK    5  A    between atoms: C15_17  and  O1_20
REMARK    6  A    between atoms: O1_20  and  C18_21
REMARK    7  A    between atoms: O3_23  and  C19_24
REMARK    8  A    between atoms: O4_25  and  C20_26
REMARK                            x       y       z     vdW  Elec       q    Type
REMARK                         _______ _______ _______ _____ _____    ______ ____
ROOT
ATOM      1  C   UNL     1      45.475  22.456  20.872  0.00  0.00    +0.328 C 
ATOM      2  N   UNL     1      45.378  20.998  20.710  0.00  0.00    -0.382 N 
ATOM      3  H   UNL     1      45.576  20.549  21.590  0.00  0.00    +0.426 HD
ATOM      4  C   UNL     1      44.025  20.646  20.277  0.00  0.00    +0.267 C 
ATOM      5  C   UNL     1      43.831  19.139  20.284  0.00  0.00    +0.124 C 
ATOM      6  C   UNL     1      45.050  18.409  19.797  0.00  0.00    -0.049 A 
ATOM      7  C   UNL     1      44.962  17.034  19.613  0.00  0.00    -0.051 A 
ATOM      8  C   UNL     1      46.043  16.311  19.141  0.00  0.00    +0.138 A 
ATOM     11  C   UNL     1      47.235  16.963  18.850  0.00  0.00    +0.082 A 
ATOM     14  C   UNL     1      47.332  18.337  19.054  0.00  0.00    +0.009 A 
ATOM     15  C   UNL     1      48.595  19.053  18.752  0.00  0.00    -0.045 A 
ATOM     16  C   UNL     1      49.571  18.467  17.946  0.00  0.00    +0.102 A 
ATOM     19  C   UNL     1      50.739  19.167  17.665  0.00  0.00    +0.111 A 
ATOM     22  C   UNL     1      50.926  20.438  18.183  0.00  0.00    -0.042 A 
ATOM     23  C   UNL     1      49.958  21.015  18.989  0.00  0.00    +0.060 A 
ATOM     24  C   UNL     1      48.800  20.325  19.280  0.00  0.00    -0.107 A 
ATOM     25  C   UNL     1      47.753  20.937  20.171  0.00  0.00    +0.113 C 
ATOM     26  C   UNL     1      46.233  19.062  19.523  0.00  0.00    -0.152 A 
ATOM     27  C   UNL     1      46.350  20.553  19.703  0.00  0.00    +0.241 C 
ENDROOT
BRANCH   8   9
ATOM      9  O   UNL     1      45.939  14.966  18.964  0.00  0.00    -0.296 OA
ATOM     10  C   UNL     1      45.286  14.224  19.996  0.00  0.00    +0.253 C 
ENDBRANCH   8   9
BRANCH  11  12
ATOM     12  O   UNL     1      48.298  16.265  18.369  0.00  0.00    -0.252 OA
ATOM     13  C   UNL     1      48.843  15.250  19.215  0.00  0.00    +0.213 C 
ENDBRANCH  11  12
BRANCH  16  17
ATOM     17  O   UNL     1      49.381  17.220  17.439  0.00  0.00    -0.413 OA
ATOM     18  H   UNL     1      48.597  17.136  16.881  0.00  0.00    +0.373 HD
ENDBRANCH  16  17
BRANCH  19  20
ATOM     20  O   UNL     1      51.698  18.605  16.881  0.00  0.00    -0.302 OA
ATOM     21  C   UNL     1      52.077  19.322  15.705  0.00  0.00    +0.250 C 
ENDBRANCH  19  20
TORSDOF 4
ENDMDL
MODEL 3
REMARK VINA RESULT:      -5.4      4.022      6.701
REMARK  Name = ZINC00056792
REMARK  8 active torsions:
REMARK  status: ('A' for Active; 'I' for Inactive)
REMARK    1  A    between atoms: C1_1  and  N1_2
REMARK    2  A    between atoms: C6_7  and  O4_25
REMARK    3  A    between atoms: C7_8  and  O3_23
REMARK    4  A    between atoms: C14_16  and  O2_22
REMARK    5  A    between atoms: C15_17  and  O1_20
REMARK    6  A    between atoms: O1_20  and  C18_21
REMARK    7  A    between atoms: O3_23  and  C19_24
REMARK    8  A    between atoms: O4_25  and  C20_26
REMARK                            x       y       z     vdW  Elec       q    Type
REMARK                         _______ _______ _______ _____ _____    ______ ____
ROOT
ATOM      1  C   UNL     1      44.163  19.052  19.651  0.00  0.00    +0.328 C 
ATOM      2  N   UNL     1      45.500  19.607  19.399  0.00  0.00    -0.382 N 
ATOM      3  H   UNL     1      45.472  20.191  18.578  0.00  0.00    +0.426 HD
ATOM      4  C   UNL     1      45.921  20.405  20.551  0.00  0.00    +0.267 C 
ATOM      5  C   UNL     1      47.211  21.150  20.249  0.00  0.00    +0.124 C 
ATOM      6  C   UNL     1      48.173  20.316  19.451  0.00  0.00    -0.049 A 
ATOM      7  C   UNL     1      49.449  20.818  19.229  0.00  0.00    -0.051 A 
ATOM      8  C   UNL     1      50.387  20.085  18.524  0.00  0.00    +0.138 A 
ATOM     11  C   UNL     1      50.050  18.832  18.026  0.00  0.00    +0.082 A 
ATOM     14  C   UNL     1      48.765  18.336  18.228  0.00  0.00    +0.009 A 
ATOM     15  C   UNL     1      48.384  17.003  17.703  0.00  0.00    -0.045 A 
ATOM     16  C   UNL     1      49.359  16.083  17.321  0.00  0.00    +0.102 A 
ATOM     19  C   UNL     1      48.975  14.833  16.848  0.00  0.00    +0.111 A 
ATOM     22  C   UNL     1      47.630  14.510  16.760  0.00  0.00    -0.042 A 
ATOM     23  C   UNL     1      46.663  15.429  17.133  0.00  0.00    +0.060 A 
ATOM     24  C   UNL     1      47.034  16.674  17.596  0.00  0.00    -0.107 A 
ATOM     25  C   UNL     1      45.990  17.685  17.984  0.00  0.00    +0.113 C 
ATOM     26  C   UNL     1      47.826  19.080  18.949  0.00  0.00    -0.152 A 
ATOM     27  C   UNL     1      46.453  18.509  19.185  0.00  0.00    +0.241 C 
ENDROOT
BRANCH   8   9
ATOM      9  O   UNL     1      51.634  20.590  18.319  0.00  0.00    -0.296 OA
ATOM     10  C   UNL     1      52.277  21.206  19.436  0.00  0.00    +0.253 C 
ENDBRANCH   8   9
BRANCH  11  12
ATOM     12  O   UNL     1      50.969  18.096  17.346  0.00  0.00    -0.252 OA
ATOM     13  C   UNL     1      51.507  18.671  16.152  0.00  0.00    +0.213 C 
ENDBRANCH  11  12
BRANCH  16  17
ATOM     17  O   UNL     1      50.677  16.405  17.411  0.00  0.00    -0.413 OA
ATOM     18  H   UNL     1      51.271  15.642  17.398  0.00  0.00    +0.373 HD
ENDBRANCH  16  17
BRANCH  19  20
ATOM     20  O   UNL     1      49.917  13.927  16.472  0.00  0.00    -0.302 OA
ATOM     21  C   UNL     1      49.596  13.076  15.370  0.00  0.00    +0.250 C 
ENDBRANCH  19  20
TORSDOF 4
ENDMDL
MODEL 4
REMARK VINA RESULT:      -5.3      4.492      7.531
REMARK  Name = ZINC00056792
REMARK  8 active torsions:
REMARK  status: ('A' for Active; 'I' for Inactive)
REMARK    1  A    between atoms: C1_1  and  N1_2
REMARK    2  A    between atoms: C6_7  and  O4_25
REMARK    3  A    between atoms: C7_8  and  O3_23
REMARK    4  A    between atoms: C14_16  and  O2_22
REMARK    5  A    between atoms: C15_17  and  O1_20
REMARK    6  A    between atoms: O1_20  and  C18_21
REMARK    7  A    between atoms: O3_23  and  C19_24
REMARK    8  A    between atoms: O4_25  and  C20_26
REMARK                            x       y       z     vdW  Elec       q    Type
REMARK                         _______ _______ _______ _____ _____    ______ ____
ROOT
ATOM      1  C   UNL     1      52.589  19.287  18.039  0.00  0.00    +0.328 C 
ATOM      2  N   UNL     1      51.195  19.358  18.502  0.00  0.00    -0.382 N 
ATOM      3  H   UNL     1      51.157  19.148  19.487  0.00  0.00    +0.426 HD
ATOM      4  C   UNL     1      50.674  20.706  18.270  0.00  0.00    +0.267 C 
ATOM      5  C   UNL     1      49.305  20.872  18.908  0.00  0.00    +0.124 C 
ATOM      6  C   UNL     1      48.456  19.642  18.756  0.00  0.00    -0.049 A 
ATOM      7  C   UNL     1      47.129  19.705  19.164  0.00  0.00    -0.051 A 
ATOM      8  C   UNL     1      46.291  18.613  19.023  0.00  0.00    +0.138 A 
ATOM     11  C   UNL     1      46.781  17.435  18.473  0.00  0.00    +0.082 A 
ATOM     14  C   UNL     1      48.116  17.362  18.084  0.00  0.00    +0.009 A 
ATOM     15  C   UNL     1      48.659  16.113  17.497  0.00  0.00    -0.045 A 
ATOM     16  C   UNL     1      47.805  15.131  16.998  0.00  0.00    +0.102 A 
ATOM     19  C   UNL     1      48.341  13.977  16.437  0.00  0.00    +0.111 A 
ATOM     22  C   UNL     1      49.716  13.812  16.376  0.00  0.00    -0.042 A 
ATOM     23  C   UNL     1      50.561  14.786  16.879  0.00  0.00    +0.060 A 
ATOM     24  C   UNL     1      50.039  15.931  17.444  0.00  0.00    -0.107 A 
ATOM     25  C   UNL     1      50.950  16.985  18.011  0.00  0.00    +0.113 C 
ATOM     26  C   UNL     1      48.953  18.473  18.221  0.00  0.00    -0.152 A 
ATOM     27  C   UNL     1      50.384  18.382  17.761  0.00  0.00    +0.241 C 
ENDROOT
BRANCH   8   9
ATOM      9  O   UNL     1      44.994  18.693  19.425  0.00  0.00    -0.296 OA
ATOM     10  C   UNL     1      44.166  19.651  18.762  0.00  0.00    +0.253 C 
ENDBRANCH   8   9
BRANCH  11  12
ATOM     12  O   UNL     1      45.962  16.361  18.316  0.00  0.00    -0.252 OA
ATOM     13  C   UNL     1      45.464  15.745  19.505  0.00  0.00    +0.213 C 
ENDBRANCH  11  12
BRANCH  16  17
ATOM     17  O   UNL     1      46.457  15.299  17.060  0.00  0.00    -0.413 OA
ATOM     18  H   UNL     1      46.065  15.644  16.246  0.00  0.00    +0.373 HD
ENDBRANCH  16  17
BRANCH  19  20
ATOM     20  O   UNL     1      47.518  13.011  15.948  0.00  0.00    -0.302 OA
ATOM     21  C   UNL     1      47.875  12.428  14.693  0.00  0.00    +0.250 C 
ENDBRANCH  19  20
TORSDOF 4
ENDMDL
MODEL 5
REMARK VINA RESULT:      -5.2      2.669      6.282
REMARK  Name = ZINC00056792
REMARK  8 active torsions:
REMARK  status: ('A' for Active; 'I' for Inactive)
REMARK    1  A    between atoms: C1_1  and  N1_2
REMARK    2  A    between atoms: C6_7  and  O4_25
REMARK    3  A    between atoms: C7_8  and  O3_23
REMARK    4  A    between atoms: C14_16  and  O2_22
REMARK    5  A    between atoms: C15_17  and  O1_20
REMARK    6  A    between atoms: O1_20  and  C18_21
REMARK    7  A    between atoms: O3_23  and  C19_24
REMARK    8  A    between atoms: O4_25  and  C20_26
REMARK                            x       y       z     vdW  Elec       q    Type
REMARK                         _______ _______ _______ _____ _____    ______ ____
ROOT
ATOM      1  C   UNL     1      48.356  13.449  17.461  0.00  0.00    +0.328 C 
ATOM      2  N   UNL     1      47.370  14.420  17.957  0.00  0.00    -0.382 N 
ATOM      3  H   UNL     1      46.736  14.665  17.212  0.00  0.00    +0.426 HD
ATOM      4  C   UNL     1      46.618  13.828  19.063  0.00  0.00    +0.267 C 
ATOM      5  C   UNL     1      45.465  14.729  19.474  0.00  0.00    +0.124 C 
ATOM      6  C   UNL     1      45.842  16.183  19.441  0.00  0.00    -0.049 A 
ATOM      7  C   UNL     1      44.929  17.109  19.933  0.00  0.00    -0.051 A 
ATOM      8  C   UNL     1      45.230  18.459  19.954  0.00  0.00    +0.138 A 
ATOM     11  C   UNL     1      46.457  18.899  19.473  0.00  0.00    +0.082 A 
ATOM     14  C   UNL     1      47.364  17.975  18.960  0.00  0.00    +0.009 A 
ATOM     15  C   UNL     1      48.679  18.424  18.440  0.00  0.00    -0.045 A 
ATOM     16  C   UNL     1      49.180  19.683  18.764  0.00  0.00    +0.102 A 
ATOM     19  C   UNL     1      50.424  20.072  18.278  0.00  0.00    +0.111 A 
ATOM     22  C   UNL     1      51.154  19.209  17.477  0.00  0.00    -0.042 A 
ATOM     23  C   UNL     1      50.649  17.962  17.150  0.00  0.00    +0.060 A 
ATOM     24  C   UNL     1      49.414  17.569  17.622  0.00  0.00    -0.107 A 
ATOM     25  C   UNL     1      48.850  16.224  17.255  0.00  0.00    +0.113 C 
ATOM     26  C   UNL     1      47.056  16.612  18.951  0.00  0.00    -0.152 A 
ATOM     27  C   UNL     1      48.066  15.628  18.423  0.00  0.00    +0.241 C 
ENDROOT
BRANCH   8   9
ATOM      9  O   UNL     1      44.327  19.352  20.441  0.00  0.00    -0.296 OA
ATOM     10  C   UNL     1      42.944  19.023  20.293  0.00  0.00    +0.253 C 
ENDBRANCH   8   9
BRANCH  11  12
ATOM     12  O   UNL     1      46.770  20.222  19.504  0.00  0.00    -0.252 OA
ATOM     13  C   UNL     1      45.927  21.106  18.762  0.00  0.00    +0.213 C 
ENDBRANCH  11  12
BRANCH  16  17
ATOM     17  O   UNL     1      48.460  20.526  19.552  0.00  0.00    -0.413 OA
ATOM     18  H   UNL     1      48.449  21.442  19.243  0.00  0.00    +0.373 HD
ENDBRANCH  16  17
BRANCH  19  20
ATOM     20  O   UNL     1      50.923  21.299  18.587  0.00  0.00    -0.302 OA
ATOM     21  C   UNL     1      52.019  21.342  19.502  0.00  0.00    +0.250 C 
ENDBRANCH  19  20
TORSDOF 4
ENDMDL
MODEL 6
REMARK VINA RESULT:      -5.2      1.991      2.437
REMARK  Name = ZINC00056792
REMARK  8 active torsions:
REMARK  status: ('A' for Active; 'I' for Inactive)
REMARK    1  A    between atoms: C1_1  and  N1_2
REMARK    2  A    between atoms: C6_7  and  O4_25
REMARK    3  A    between atoms: C7_8  and  O3_23
REMARK    4  A    between atoms: C14_16  and  O2_22
REMARK    5  A    between atoms: C15_17  and  O1_20
REMARK    6  A    between atoms: O1_20  and  C18_21
REMARK    7  A    between atoms: O3_23  and  C19_24
REMARK    8  A    between atoms: O4_25  and  C20_26
REMARK                            x       y       z     vdW  Elec       q    Type
REMARK                         _______ _______ _______ _____ _____    ______ ____
ROOT
ATOM      1  C   UNL     1      45.088  13.378  22.421  0.00  0.00    +0.328 C 
ATOM      2  N   UNL     1      45.958  14.160  21.531  0.00  0.00    -0.382 N 
ATOM      3  H   UNL     1      46.682  14.605  22.074  0.00  0.00    +0.426 HD
ATOM      4  C   UNL     1      46.568  13.271  20.541  0.00  0.00    +0.267 C 
ATOM      5  C   UNL     1      47.617  14.009  19.727  0.00  0.00    +0.124 C 
ATOM      6  C   UNL     1      47.196  15.413  19.399  0.00  0.00    -0.049 A 
ATOM      7  C   UNL     1      47.995  16.154  18.536  0.00  0.00    -0.051 A 
ATOM      8  C   UNL     1      47.645  17.442  18.174  0.00  0.00    +0.138 A 
ATOM     11  C   UNL     1      46.482  18.008  18.684  0.00  0.00    +0.082 A 
ATOM     14  C   UNL     1      45.691  17.276  19.566  0.00  0.00    +0.009 A 
ATOM     15  C   UNL     1      44.448  17.862  20.122  0.00  0.00    -0.045 A 
ATOM     16  C   UNL     1      43.859  18.978  19.528  0.00  0.00    +0.102 A 
ATOM     19  C   UNL     1      42.684  19.497  20.060  0.00  0.00    +0.111 A 
ATOM     22  C   UNL     1      42.106  18.905  21.172  0.00  0.00    -0.042 A 
ATOM     23  C   UNL     1      42.697  17.801  21.763  0.00  0.00    +0.060 A 
ATOM     24  C   UNL     1      43.867  17.283  21.248  0.00  0.00    -0.107 A 
ATOM     25  C   UNL     1      44.526  16.097  21.897  0.00  0.00    +0.113 C 
ATOM     26  C   UNL     1      46.048  15.971  19.918  0.00  0.00    -0.152 A 
ATOM     27  C   UNL     1      45.159  15.186  20.846  0.00  0.00    +0.241 C 
ENDROOT
BRANCH   8   9
ATOM      9  O   UNL     1      48.436  18.152  17.327  0.00  0.00    -0.296 OA
ATOM     10  C   UNL     1      49.814  17.776  17.257  0.00  0.00    +0.253 C 
ENDBRANCH   8   9
BRANCH  11  12
ATOM     12  O   UNL     1      46.119  19.268  18.323  0.00  0.00    -0.252 OA
ATOM     13  C   UNL     1      46.965  20.336  18.756  0.00  0.00    +0.213 C 
ENDBRANCH  11  12
BRANCH  16  17
ATOM     17  O   UNL     1      44.430  19.555  18.437  0.00  0.00    -0.413 OA
ATOM     18  H   UNL     1      44.255  19.089  17.609  0.00  0.00    +0.373 HD
ENDBRANCH  16  17
BRANCH  19  20
ATOM     20  O   UNL     1      42.101  20.586  19.490  0.00  0.00    -0.302 OA
ATOM     21  C   UNL     1      40.837  20.387  18.853  0.00  0.00    +0.250 C 
ENDBRANCH  19  20
TORSDOF 4
ENDMDL
MODEL 7
REMARK VINA RESULT:      -5.0      2.914      3.921
REMARK  Name = ZINC00056792
REMARK  8 active torsions:
REMARK  status: ('A' for Active; 'I' for Inactive)
REMARK    1  A    between atoms: C1_1  and  N1_2
REMARK    2  A    between atoms: C6_7  and  O4_25
REMARK    3  A    between atoms: C7_8  and  O3_23
REMARK    4  A    between atoms: C14_16  and  O2_22
REMARK    5  A    between atoms: C15_17  and  O1_20
REMARK    6  A    between atoms: O1_20  and  C18_21
REMARK    7  A    between atoms: O3_23  and  C19_24
REMARK    8  A    between atoms: O4_25  and  C20_26
REMARK                            x       y       z     vdW  Elec       q    Type
REMARK                         _______ _______ _______ _____ _____    ______ ____
ROOT
ATOM      1  C   UNL     1      45.462  13.277  18.382  0.00  0.00    +0.328 C 
ATOM      2  N   UNL     1      46.656  14.122  18.238  0.00  0.00    -0.382 N 
ATOM      3  H   UNL     1      47.287  13.946  19.005  0.00  0.00    +0.426 HD
ATOM      4  C   UNL     1      47.325  13.806  16.975  0.00  0.00    +0.267 C 
ATOM      5  C   UNL     1      48.663  14.521  16.880  0.00  0.00    +0.124 C 
ATOM      6  C   UNL     1      48.601  15.916  17.434  0.00  0.00    -0.049 A 
ATOM      7  C   UNL     1      49.714  16.734  17.279  0.00  0.00    -0.051 A 
ATOM      8  C   UNL     1      49.706  18.037  17.744  0.00  0.00    +0.138 A 
ATOM     11  C   UNL     1      48.576  18.536  18.379  0.00  0.00    +0.082 A 
ATOM     14  C   UNL     1      47.467  17.711  18.556  0.00  0.00    +0.009 A 
ATOM     15  C   UNL     1      46.252  18.223  19.233  0.00  0.00    -0.045 A 
ATOM     16  C   UNL     1      46.045  19.593  19.387  0.00  0.00    +0.102 A 
ATOM     19  C   UNL     1      44.888  20.046  20.010  0.00  0.00    +0.111 A 
ATOM     22  C   UNL     1      43.950  19.137  20.472  0.00  0.00    -0.042 A 
ATOM     23  C   UNL     1      44.161  17.777  20.325  0.00  0.00    +0.060 A 
ATOM     24  C   UNL     1      45.309  17.317  19.714  0.00  0.00    -0.107 A 
ATOM     25  C   UNL     1      45.555  15.840  19.568  0.00  0.00    +0.113 C 
ATOM     26  C   UNL     1      47.480  16.399  18.075  0.00  0.00    -0.152 A 
ATOM     27  C   UNL     1      46.257  15.536  18.245  0.00  0.00    +0.241 C 
ENDROOT
BRANCH   8   9
ATOM      9  O   UNL     1      50.803  18.826  17.581  0.00  0.00    -0.296 OA
ATOM     10  C   UNL     1      51.543  18.666  16.369  0.00  0.00    +0.253 C 
ENDBRANCH   8   9
BRANCH  11  12
ATOM     12  O   UNL     1      48.551  19.820  18.826  0.00  0.00    -0.252 OA
ATOM     13  C   UNL     1      49.546  20.194  19.782  0.00  0.00    +0.213 C 
ENDBRANCH  11  12
BRANCH  16  17
ATOM     17  O   UNL     1      46.969  20.480  18.930  0.00  0.00    -0.413 OA
ATOM     18  H   UNL     1      47.666  20.686  19.567  0.00  0.00    +0.373 HD
ENDBRANCH  16  17
BRANCH  19  20
ATOM     20  O   UNL     1      44.676  21.381  20.167  0.00  0.00    -0.302 OA
ATOM     21  C   UNL     1      43.464  21.913  19.629  0.00  0.00    +0.250 C 
ENDBRANCH  19  20
TORSDOF 4
ENDMDL
MODEL 8
REMARK VINA RESULT:      -4.8     22.237     24.485
REMARK  Name = ZINC00056792
REMARK  8 active torsions:
REMARK  status: ('A' for Active; 'I' for Inactive)
REMARK    1  A    between atoms: C1_1  and  N1_2
REMARK    2  A    between atoms: C6_7  and  O4_25
REMARK    3  A    between atoms: C7_8  and  O3_23
REMARK    4  A    between atoms: C14_16  and  O2_22
REMARK    5  A    between atoms: C15_17  and  O1_20
REMARK    6  A    between atoms: O1_20  and  C18_21
REMARK    7  A    between atoms: O3_23  and  C19_24
REMARK    8  A    between atoms: O4_25  and  C20_26
REMARK                            x       y       z     vdW  Elec       q    Type
REMARK                         _______ _______ _______ _____ _____    ______ ____
ROOT
ATOM      1  C   UNL     1      59.019  31.277   2.577  0.00  0.00    +0.328 C 
ATOM      2  N   UNL     1      57.783  31.521   1.821  0.00  0.00    -0.382 N 
ATOM      3  H   UNL     1      57.866  32.386   1.311  0.00  0.00    +0.426 HD
ATOM      4  C   UNL     1      57.562  30.420   0.882  0.00  0.00    +0.267 C 
ATOM      5  C   UNL     1      56.401  30.730  -0.048  0.00  0.00    +0.124 C 
ATOM      6  C   UNL     1      55.273  31.421   0.665  0.00  0.00    -0.049 A 
ATOM      7  C   UNL     1      54.088  31.633  -0.031  0.00  0.00    -0.051 A 
ATOM      8  C   UNL     1      53.006  32.239   0.579  0.00  0.00    +0.138 A 
ATOM     11  C   UNL     1      53.102  32.650   1.904  0.00  0.00    +0.082 A 
ATOM     14  C   UNL     1      54.295  32.459   2.596  0.00  0.00    +0.009 A 
ATOM     15  C   UNL     1      54.420  32.891   4.009  0.00  0.00    -0.045 A 
ATOM     16  C   UNL     1      53.286  33.160   4.774  0.00  0.00    +0.102 A 
ATOM     19  C   UNL     1      53.431  33.547   6.102  0.00  0.00    +0.111 A 
ATOM     22  C   UNL     1      54.696  33.661   6.655  0.00  0.00    -0.042 A 
ATOM     23  C   UNL     1      55.821  33.401   5.891  0.00  0.00    +0.060 A 
ATOM     24  C   UNL     1      55.688  33.023   4.571  0.00  0.00    -0.107 A 
ATOM     25  C   UNL     1      56.905  32.758   3.728  0.00  0.00    +0.113 C 
ATOM     26  C   UNL     1      55.381  31.836   1.974  0.00  0.00    -0.152 A 
ATOM     27  C   UNL     1      56.650  31.609   2.753  0.00  0.00    +0.241 C 
ENDROOT
BRANCH   8   9
ATOM      9  O   UNL     1      51.853  32.436  -0.115  0.00  0.00    -0.296 OA
ATOM     10  C   UNL     1      51.625  31.595  -1.248  0.00  0.00    +0.253 C 
ENDBRANCH   8   9
BRANCH  11  12
ATOM     12  O   UNL     1      52.039  33.232   2.519  0.00  0.00    -0.252 OA
ATOM     13  C   UNL     1      51.560  34.459   1.964  0.00  0.00    +0.213 C 
ENDBRANCH  11  12
BRANCH  16  17
ATOM     17  O   UNL     1      52.047  33.045   4.226  0.00  0.00    -0.413 OA
ATOM     18  H   UNL     1      51.325  33.135   4.862  0.00  0.00    +0.373 HD
ENDBRANCH  16  17
BRANCH  19  20
ATOM     20  O   UNL     1      52.332  33.813   6.858  0.00  0.00    -0.302 OA
ATOM     21  C   UNL     1      52.213  35.134   7.388  0.00  0.00    +0.250 C 
ENDBRANCH  19  20
TORSDOF 4
ENDMDL
MODEL 9
REMARK VINA RESULT:      -4.7      3.314      5.908
REMARK  Name = ZINC00056792
REMARK  8 active torsions:
REMARK  status: ('A' for Active; 'I' for Inactive)
REMARK    1  A    between atoms: C1_1  and  N1_2
REMARK    2  A    between atoms: C6_7  and  O4_25
REMARK    3  A    between atoms: C7_8  and  O3_23
REMARK    4  A    between atoms: C14_16  and  O2_22
REMARK    5  A    between atoms: C15_17  and  O1_20
REMARK    6  A    between atoms: O1_20  and  C18_21
REMARK    7  A    between atoms: O3_23  and  C19_24
REMARK    8  A    between atoms: O4_25  and  C20_26
REMARK                            x       y       z     vdW  Elec       q    Type
REMARK                         _______ _______ _______ _____ _____    ______ ____
ROOT
ATOM      1  C   UNL     1      43.107  19.652  20.679  0.00  0.00    +0.328 C 
ATOM      2  N   UNL     1      44.439  19.921  20.120  0.00  0.00    -0.382 N 
ATOM      3  H   UNL     1      44.361  20.084  19.129  0.00  0.00    +0.426 HD
ATOM      4  C   UNL     1      45.006  21.106  20.765  0.00  0.00    +0.267 C 
ATOM      5  C   UNL     1      46.297  21.526  20.082  0.00  0.00    +0.124 C 
ATOM      6  C   UNL     1      47.136  20.346  19.680  0.00  0.00    -0.049 A 
ATOM      7  C   UNL     1      48.409  20.587  19.177  0.00  0.00    -0.051 A 
ATOM      8  C   UNL     1      49.238  19.541  18.816  0.00  0.00    +0.138 A 
ATOM     11  C   UNL     1      48.794  18.231  18.951  0.00  0.00    +0.082 A 
ATOM     14  C   UNL     1      47.511  17.988  19.434  0.00  0.00    +0.009 A 
ATOM     15  C   UNL     1      47.017  16.598  19.585  0.00  0.00    -0.045 A 
ATOM     16  C   UNL     1      47.905  15.523  19.593  0.00  0.00    +0.102 A 
ATOM     19  C   UNL     1      47.416  14.231  19.753  0.00  0.00    +0.111 A 
ATOM     22  C   UNL     1      46.055  14.020  19.904  0.00  0.00    -0.042 A 
ATOM     23  C   UNL     1      45.174  15.089  19.889  0.00  0.00    +0.060 A 
ATOM     24  C   UNL     1      45.649  16.374  19.723  0.00  0.00    -0.107 A 
ATOM     25  C   UNL     1      44.697  17.538  19.684  0.00  0.00    +0.113 C 
ATOM     26  C   UNL     1      46.683  19.051  19.806  0.00  0.00    -0.152 A 
ATOM     27  C   UNL     1      45.312  18.763  20.360  0.00  0.00    +0.241 C 
ENDROOT
BRANCH   8   9
ATOM      9  O   UNL     1      50.482  19.793  18.327  0.00  0.00    -0.296 OA
ATOM     10  C   UNL     1      50.790  21.151  18.005  0.00  0.00    +0.253 C 
ENDBRANCH   8   9
BRANCH  11  12
ATOM     12  O   UNL     1      49.607  17.194  18.614  0.00  0.00    -0.252 OA
ATOM     13  C   UNL     1      50.049  17.130  17.257  0.00  0.00    +0.213 C 
ENDBRANCH  11  12
BRANCH  16  17
ATOM     17  O   UNL     1      49.239  15.736  19.446  0.00  0.00    -0.413 OA
ATOM     18  H   UNL     1      49.526  16.626  19.690  0.00  0.00    +0.373 HD
ENDBRANCH  16  17
BRANCH  19  20
ATOM     20  O   UNL     1      48.272  13.175  19.762  0.00  0.00    -0.302 OA
ATOM     21  C   UNL     1      48.097  12.189  18.743  0.00  0.00    +0.250 C 
ENDBRANCH  19  20
TORSDOF 4
ENDMDL
