MODEL 1
REMARK VINA RESULT:      -3.1      0.000      0.000
REMARK  Name = ZINC01697403
REMARK  5 active torsions:
REMARK  status: ('A' for Active; 'I' for Inactive)
REMARK    1  A    between atoms: C1_1  and  C2_2
REMARK    2  A    between atoms: C2_2  and  C3_3
REMARK    3  A    between atoms: C3_3  and  O1_4
REMARK    4  A    between atoms: O1_4  and  C4_5
REMARK    5  A    between atoms: C4_5  and  C5_7
REMARK                            x       y       z     vdW  Elec       q    Type
REMARK                         _______ _______ _______ _____ _____    ______ ____
ROOT
ATOM      4  O   UNL     1      42.566  20.357  19.724  0.00  0.00    -0.360 OA
ENDROOT
BRANCH   4   5
ATOM      5  C   UNL     1      42.415  19.212  20.406  0.00  0.00    +0.459 C 
ATOM      6  C   UNL     1      41.112  18.918  21.105  0.00  0.00    +0.155 C 
ATOM      7  O   UNL     1      43.320  18.414  20.456  0.00  0.00    -0.515 OA
ENDBRANCH   4   5
BRANCH   4   3
ATOM      3  C   UNL     1      41.789  20.506  18.507  0.00  0.00    +0.205 C 
BRANCH   3   2
ATOM      1  C   UNL     1      39.466  21.420  18.630  0.00  0.00    +0.032 C 
ATOM      2  C   UNL     1      40.951  21.784  18.589  0.00  0.00    +0.024 C 
ENDBRANCH   3   2
ENDBRANCH   4   3
TORSDOF 3
ENDMDL
MODEL 2
REMARK VINA RESULT:      -3.0      2.052      3.744
REMARK  Name = ZINC01697403
REMARK  5 active torsions:
REMARK  status: ('A' for Active; 'I' for Inactive)
REMARK    1  A    between atoms: C1_1  and  C2_2
REMARK    2  A    between atoms: C2_2  and  C3_3
REMARK    3  A    between atoms: C3_3  and  O1_4
REMARK    4  A    between atoms: O1_4  and  C4_5
REMARK    5  A    between atoms: C4_5  and  C5_7
REMARK                            x       y       z     vdW  Elec       q    Type
REMARK                         _______ _______ _______ _____ _____    ______ ____
ROOT
ATOM      4  O   UNL     1      41.993  20.338  18.332  0.00  0.00    -0.360 OA
ENDROOT
BRANCH   4   5
ATOM      5  C   UNL     1      41.274  21.427  18.645  0.00  0.00    +0.459 C 
ATOM      6  C   UNL     1      39.769  21.381  18.574  0.00  0.00    +0.155 C 
ATOM      7  O   UNL     1      41.831  22.441  18.990  0.00  0.00    -0.515 OA
ENDBRANCH   4   5
BRANCH   4   3
ATOM      3  C   UNL     1      42.996  19.913  19.292  0.00  0.00    +0.205 C 
BRANCH   3   2
ATOM      1  C   UNL     1      45.241  20.947  18.924  0.00  0.00    +0.032 C 
ATOM      2  C   UNL     1      44.344  19.756  18.585  0.00  0.00    +0.024 C 
ENDBRANCH   3   2
ENDBRANCH   4   3
TORSDOF 3
ENDMDL
MODEL 3
REMARK VINA RESULT:      -3.0      1.337      3.436
REMARK  Name = ZINC01697403
REMARK  5 active torsions:
REMARK  status: ('A' for Active; 'I' for Inactive)
REMARK    1  A    between atoms: C1_1  and  C2_2
REMARK    2  A    between atoms: C2_2  and  C3_3
REMARK    3  A    between atoms: C3_3  and  O1_4
REMARK    4  A    between atoms: O1_4  and  C4_5
REMARK    5  A    between atoms: C4_5  and  C5_7
REMARK                            x       y       z     vdW  Elec       q    Type
REMARK                         _______ _______ _______ _____ _____    ______ ____
ROOT
ATOM      4  O   UNL     1      41.666  20.266  18.780  0.00  0.00    -0.360 OA
ENDROOT
BRANCH   4   5
ATOM      5  C   UNL     1      41.005  21.431  18.704  0.00  0.00    +0.459 C 
ATOM      6  C   UNL     1      39.505  21.438  18.556  0.00  0.00    +0.155 C 
ATOM      7  O   UNL     1      41.611  22.475  18.759  0.00  0.00    -0.515 OA
ENDBRANCH   4   5
BRANCH   4   3
ATOM      3  C   UNL     1      42.732  20.176  19.762  0.00  0.00    +0.205 C 
BRANCH   3   2
ATOM      1  C   UNL     1      41.152  18.857  21.179  0.00  0.00    +0.032 C 
ATOM      2  C   UNL     1      42.561  18.898  20.586  0.00  0.00    +0.024 C 
ENDBRANCH   3   2
ENDBRANCH   4   3
TORSDOF 3
ENDMDL
MODEL 4
REMARK VINA RESULT:      -2.9      2.143      2.647
REMARK  Name = ZINC01697403
REMARK  5 active torsions:
REMARK  status: ('A' for Active; 'I' for Inactive)
REMARK    1  A    between atoms: C1_1  and  C2_2
REMARK    2  A    between atoms: C2_2  and  C3_3
REMARK    3  A    between atoms: C3_3  and  O1_4
REMARK    4  A    between atoms: O1_4  and  C4_5
REMARK    5  A    between atoms: C4_5  and  C5_7
REMARK                            x       y       z     vdW  Elec       q    Type
REMARK                         _______ _______ _______ _____ _____    ______ ____
ROOT
ATOM      4  O   UNL     1      43.397  21.085  19.377  0.00  0.00    -0.360 OA
ENDROOT
BRANCH   4   5
ATOM      5  C   UNL     1      44.503  20.513  18.875  0.00  0.00    +0.459 C 
ATOM      6  C   UNL     1      45.795  21.288  18.827  0.00  0.00    +0.155 C 
ATOM      7  O   UNL     1      44.465  19.376  18.469  0.00  0.00    -0.515 OA
ENDBRANCH   4   5
BRANCH   4   3
ATOM      3  C   UNL     1      42.125  20.660  18.820  0.00  0.00    +0.205 C 
BRANCH   3   2
ATOM      1  C   UNL     1      39.749  21.373  18.527  0.00  0.00    +0.032 C 
ATOM      2  C   UNL     1      41.185  21.862  18.719  0.00  0.00    +0.024 C 
ENDBRANCH   3   2
ENDBRANCH   4   3
TORSDOF 3
ENDMDL
MODEL 5
REMARK VINA RESULT:      -2.8      2.028      2.789
REMARK  Name = ZINC01697403
REMARK  5 active torsions:
REMARK  status: ('A' for Active; 'I' for Inactive)
REMARK    1  A    between atoms: C1_1  and  C2_2
REMARK    2  A    between atoms: C2_2  and  C3_3
REMARK    3  A    between atoms: C3_3  and  O1_4
REMARK    4  A    between atoms: O1_4  and  C4_5
REMARK    5  A    between atoms: C4_5  and  C5_7
REMARK                            x       y       z     vdW  Elec       q    Type
REMARK                         _______ _______ _______ _____ _____    ______ ____
ROOT
ATOM      4  O   UNL     1      42.996  20.825  19.866  0.00  0.00    -0.360 OA
ENDROOT
BRANCH   4   5
ATOM      5  C   UNL     1      44.123  21.504  19.602  0.00  0.00    +0.459 C 
ATOM      6  C   UNL     1      45.266  20.821  18.895  0.00  0.00    +0.155 C 
ATOM      7  O   UNL     1      44.220  22.664  19.926  0.00  0.00    -0.515 OA
ENDBRANCH   4   5
BRANCH   4   3
ATOM      3  C   UNL     1      42.065  20.641  18.767  0.00  0.00    +0.205 C 
BRANCH   3   2
ATOM      1  C   UNL     1      39.682  21.337  18.489  0.00  0.00    +0.032 C 
ATOM      2  C   UNL     1      41.111  21.836  18.701  0.00  0.00    +0.024 C 
ENDBRANCH   3   2
ENDBRANCH   4   3
TORSDOF 3
ENDMDL
MODEL 6
REMARK VINA RESULT:      -2.7      9.611     10.419
REMARK  Name = ZINC01697403
REMARK  5 active torsions:
REMARK  status: ('A' for Active; 'I' for Inactive)
REMARK    1  A    between atoms: C1_1  and  C2_2
REMARK    2  A    between atoms: C2_2  and  C3_3
REMARK    3  A    between atoms: C3_3  and  O1_4
REMARK    4  A    between atoms: O1_4  and  C4_5
REMARK    5  A    between atoms: C4_5  and  C5_7
REMARK                            x       y       z     vdW  Elec       q    Type
REMARK                         _______ _______ _______ _____ _____    ______ ____
ROOT
ATOM      4  O   UNL     1      52.126  20.381  17.751  0.00  0.00    -0.360 OA
ENDROOT
BRANCH   4   5
ATOM      5  C   UNL     1      51.412  21.029  18.684  0.00  0.00    +0.459 C 
ATOM      6  C   UNL     1      49.907  20.938  18.679  0.00  0.00    +0.155 C 
ATOM      7  O   UNL     1      51.974  21.680  19.532  0.00  0.00    -0.515 OA
ENDBRANCH   4   5
BRANCH   4   3
ATOM      3  C   UNL     1      52.044  20.885  16.392  0.00  0.00    +0.205 C 
BRANCH   3   2
ATOM      1  C   UNL     1      51.709  18.416  16.206  0.00  0.00    +0.032 C 
ATOM      2  C   UNL     1      51.673  19.742  15.445  0.00  0.00    +0.024 C 
ENDBRANCH   3   2
ENDBRANCH   4   3
TORSDOF 3
ENDMDL
MODEL 7
REMARK VINA RESULT:      -2.7     15.064     15.855
REMARK  Name = ZINC01697403
REMARK  5 active torsions:
REMARK  status: ('A' for Active; 'I' for Inactive)
REMARK    1  A    between atoms: C1_1  and  C2_2
REMARK    2  A    between atoms: C2_2  and  C3_3
REMARK    3  A    between atoms: C3_3  and  O1_4
REMARK    4  A    between atoms: O1_4  and  C4_5
REMARK    5  A    between atoms: C4_5  and  C5_7
REMARK                            x       y       z     vdW  Elec       q    Type
REMARK                         _______ _______ _______ _____ _____    ______ ____
ROOT
ATOM      4  O   UNL     1      51.226  12.043   9.520  0.00  0.00    -0.360 OA
ENDROOT
BRANCH   4   5
ATOM      5  C   UNL     1      51.875  10.910   9.830  0.00  0.00    +0.459 C 
ATOM      6  C   UNL     1      53.010  10.431   8.962  0.00  0.00    +0.155 C 
ATOM      7  O   UNL     1      51.553  10.277  10.808  0.00  0.00    -0.515 OA
ENDBRANCH   4   5
BRANCH   4   3
ATOM      3  C   UNL     1      51.423  13.178  10.404  0.00  0.00    +0.205 C 
BRANCH   3   2
ATOM      1  C   UNL     1      50.739  13.106  12.806  0.00  0.00    +0.032 C 
ATOM      2  C   UNL     1      50.242  13.283  11.371  0.00  0.00    +0.024 C 
ENDBRANCH   3   2
ENDBRANCH   4   3
TORSDOF 3
ENDMDL
MODEL 8
REMARK VINA RESULT:      -2.7      2.227      3.441
REMARK  Name = ZINC01697403
REMARK  5 active torsions:
REMARK  status: ('A' for Active; 'I' for Inactive)
REMARK    1  A    between atoms: C1_1  and  C2_2
REMARK    2  A    between atoms: C2_2  and  C3_3
REMARK    3  A    between atoms: C3_3  and  O1_4
REMARK    4  A    between atoms: O1_4  and  C4_5
REMARK    5  A    between atoms: C4_5  and  C5_7
REMARK                            x       y       z     vdW  Elec       q    Type
REMARK                         _______ _______ _______ _____ _____    ______ ____
ROOT
ATOM      4  O   UNL     1      42.835  20.986  19.087  0.00  0.00    -0.360 OA
ENDROOT
BRANCH   4   5
ATOM      5  C   UNL     1      41.548  20.606  19.057  0.00  0.00    +0.459 C 
ATOM      6  C   UNL     1      40.489  21.572  18.591  0.00  0.00    +0.155 C 
ATOM      7  O   UNL     1      41.239  19.488  19.396  0.00  0.00    -0.515 OA
ENDBRANCH   4   5
BRANCH   4   3
ATOM      3  C   UNL     1      43.827  19.981  18.752  0.00  0.00    +0.205 C 
BRANCH   3   2
ATOM      1  C   UNL     1      45.122  22.027  19.368  0.00  0.00    +0.032 C 
ATOM      2  C   UNL     1      45.226  20.590  18.852  0.00  0.00    +0.024 C 
ENDBRANCH   3   2
ENDBRANCH   4   3
TORSDOF 3
ENDMDL
MODEL 9
REMARK VINA RESULT:      -2.6      9.604     10.308
REMARK  Name = ZINC01697403
REMARK  5 active torsions:
REMARK  status: ('A' for Active; 'I' for Inactive)
REMARK    1  A    between atoms: C1_1  and  C2_2
REMARK    2  A    between atoms: C2_2  and  C3_3
REMARK    3  A    between atoms: C3_3  and  O1_4
REMARK    4  A    between atoms: O1_4  and  C4_5
REMARK    5  A    between atoms: C4_5  and  C5_7
REMARK                            x       y       z     vdW  Elec       q    Type
REMARK                         _______ _______ _______ _____ _____    ______ ____
ROOT
ATOM      4  O   UNL     1      51.978  18.803  16.917  0.00  0.00    -0.360 OA
ENDROOT
BRANCH   4   5
ATOM      5  C   UNL     1      51.306  17.642  16.890  0.00  0.00    +0.459 C 
ATOM      6  C   UNL     1      49.804  17.637  17.011  0.00  0.00    +0.155 C 
ATOM      7  O   UNL     1      51.905  16.600  16.763  0.00  0.00    -0.515 OA
ENDBRANCH   4   5
BRANCH   4   3
ATOM      3  C   UNL     1      51.833  19.675  15.765  0.00  0.00    +0.205 C 
BRANCH   3   2
ATOM      1  C   UNL     1      51.111  21.130  17.664  0.00  0.00    +0.032 C 
ATOM      2  C   UNL     1      51.661  21.120  16.237  0.00  0.00    +0.024 C 
ENDBRANCH   3   2
ENDBRANCH   4   3
TORSDOF 3
ENDMDL
