MODEL 1
REMARK VINA RESULT:      -6.1      0.000      0.000
REMARK  Name = ZINC95486287
REMARK  11 active torsions:
REMARK  status: ('A' for Active; 'I' for Inactive)
REMARK    1  A    between atoms: C1_1  and  C2_2
REMARK    2  A    between atoms: C3_3  and  O8_26
REMARK    3  A    between atoms: C7_7  and  O1_8
REMARK    4  A    between atoms: C9_11  and  O7_24
REMARK    5  A    between atoms: C10_12  and  O4_14
REMARK    6  A    between atoms: O4_14  and  C11_15
REMARK    7  A    between atoms: C14_18  and  O6_23
REMARK    8  A    between atoms: C15_19  and  O5_21
REMARK    9  A    between atoms: O5_21  and  C17_22
REMARK   10  A    between atoms: O7_24  and  C18_25
REMARK   11  A    between atoms: O8_26  and  C19_27
REMARK                            x       y       z     vdW  Elec       q    Type
REMARK                         _______ _______ _______ _____ _____    ______ ____
ROOT
ATOM      1  C   UNL     1      51.981  18.758  16.998  0.00  0.00    +0.122 C 
ATOM      2  C   UNL     1      50.730  19.101  17.767  0.00  0.00    -0.171 A 
ATOM      3  C   UNL     1      50.656  20.295  18.476  0.00  0.00    +0.212 A 
ATOM      6  C   UNL     1      49.514  20.625  19.187  0.00  0.00    -0.089 A 
ATOM      7  C   UNL     1      48.429  19.761  19.197  0.00  0.00    +0.211 A 
ATOM      8  C   UNL     1      48.502  18.553  18.482  0.00  0.00    -0.279 A 
ATOM      9  C   UNL     1      47.338  17.652  18.508  0.00  0.00    +0.444 A 
ATOM     10  C   UNL     1      46.211  18.064  19.258  0.00  0.00    -0.074 A 
ATOM     13  C   UNL     1      46.244  19.253  19.916  0.00  0.00    +0.222 A 
ATOM     25  O   UNL     1      47.344  16.590  17.905  0.00  0.00    -0.430 OA
ATOM     26  O   UNL     1      47.310  20.066  19.886  0.00  0.00    -0.233 OA
ATOM     27  C   UNL     1      49.657  18.229  17.760  0.00  0.00    +0.241 A 
ENDROOT
BRANCH   3   4
ATOM      4  O   UNL     1      51.714  21.147  18.470  0.00  0.00    -0.296 OA
ATOM      5  C   UNL     1      52.271  21.498  19.738  0.00  0.00    +0.255 C 
ENDBRANCH   3   4
BRANCH  10  11
ATOM     11  O   UNL     1      45.103  17.274  19.322  0.00  0.00    -0.285 OA
ATOM     12  C   UNL     1      45.083  16.264  20.331  0.00  0.00    +0.257 C 
ENDBRANCH  10  11
BRANCH  27  28
ATOM     28  O   UNL     1      49.725  17.067  17.064  0.00  0.00    -0.466 OA
ATOM     29  H   UNL     1      49.310  16.316  17.511  0.00  0.00    +0.404 HD
ENDBRANCH  27  28
BRANCH  13  14
ATOM     14  O   UNL     1      45.159  19.630  20.629  0.00  0.00    -0.207 OA
BRANCH  14  15
ATOM     15  C   UNL     1      44.447  20.701  20.188  0.00  0.00    +0.085 A 
ATOM     16  C   UNL     1      44.956  21.983  20.341  0.00  0.00    +0.005 A 
ATOM     17  C   UNL     1      44.233  23.072  19.894  0.00  0.00    +0.055 A 
ATOM     18  C   UNL     1      42.997  22.888  19.295  0.00  0.00    +0.090 A 
ATOM     21  C   UNL     1      42.485  21.604  19.141  0.00  0.00    +0.118 A 
ATOM     24  C   UNL     1      43.213  20.512  19.583  0.00  0.00    -0.045 A 
BRANCH  18  19
ATOM     19  O   UNL     1      42.286  23.962  18.857  0.00  0.00    -0.483 OA
ATOM     20  H   UNL     1      41.860  24.467  19.563  0.00  0.00    +0.393 HD
ENDBRANCH  18  19
BRANCH  21  22
ATOM     22  O   UNL     1      41.273  21.421  18.552  0.00  0.00    -0.301 OA
ATOM     23  C   UNL     1      40.926  20.084  18.182  0.00  0.00    +0.245 C 
ENDBRANCH  21  22
ENDBRANCH  14  15
ENDBRANCH  13  14
TORSDOF 7
ENDMDL
MODEL 2
REMARK VINA RESULT:      -6.1      0.686      1.731
REMARK  Name = ZINC95486287
REMARK  11 active torsions:
REMARK  status: ('A' for Active; 'I' for Inactive)
REMARK    1  A    between atoms: C1_1  and  C2_2
REMARK    2  A    between atoms: C3_3  and  O8_26
REMARK    3  A    between atoms: C7_7  and  O1_8
REMARK    4  A    between atoms: C9_11  and  O7_24
REMARK    5  A    between atoms: C10_12  and  O4_14
REMARK    6  A    between atoms: O4_14  and  C11_15
REMARK    7  A    between atoms: C14_18  and  O6_23
REMARK    8  A    between atoms: C15_19  and  O5_21
REMARK    9  A    between atoms: O5_21  and  C17_22
REMARK   10  A    between atoms: O7_24  and  C18_25
REMARK   11  A    between atoms: O8_26  and  C19_27
REMARK                            x       y       z     vdW  Elec       q    Type
REMARK                         _______ _______ _______ _____ _____    ______ ____
ROOT
ATOM      1  C   UNL     1      51.615  18.952  17.045  0.00  0.00    +0.122 C 
ATOM      2  C   UNL     1      50.350  19.180  17.832  0.00  0.00    -0.171 A 
ATOM      3  C   UNL     1      50.168  20.374  18.522  0.00  0.00    +0.212 A 
ATOM      6  C   UNL     1      49.010  20.599  19.250  0.00  0.00    -0.089 A 
ATOM      7  C   UNL     1      48.020  19.630  19.295  0.00  0.00    +0.211 A 
ATOM      8  C   UNL     1      48.202  18.423  18.599  0.00  0.00    -0.279 A 
ATOM      9  C   UNL     1      47.136  17.409  18.663  0.00  0.00    +0.444 A 
ATOM     10  C   UNL     1      45.988  17.718  19.428  0.00  0.00    -0.074 A 
ATOM     13  C   UNL     1      45.910  18.917  20.065  0.00  0.00    +0.222 A 
ATOM     25  O   UNL     1      47.240  16.342  18.078  0.00  0.00    -0.430 OA
ATOM     26  O   UNL     1      46.887  19.832  20.000  0.00  0.00    -0.233 OA
ATOM     27  C   UNL     1      49.372  18.204  17.861  0.00  0.00    +0.241 A 
ENDROOT
BRANCH   3   4
ATOM      4  O   UNL     1      51.133  21.328  18.482  0.00  0.00    -0.296 OA
ATOM      5  C   UNL     1      51.979  21.444  19.627  0.00  0.00    +0.255 C 
ENDBRANCH   3   4
BRANCH  10  11
ATOM     11  O   UNL     1      44.966  16.822  19.527  0.00  0.00    -0.285 OA
ATOM     12  C   UNL     1      45.018  15.895  20.613  0.00  0.00    +0.257 C 
ENDBRANCH  10  11
BRANCH  27  28
ATOM     28  O   UNL     1      49.545  17.042  17.184  0.00  0.00    -0.466 OA
ATOM     29  H   UNL     1      50.468  16.762  17.113  0.00  0.00    +0.404 HD
ENDBRANCH  27  28
BRANCH  13  14
ATOM     14  O   UNL     1      44.806  19.195  20.792  0.00  0.00    -0.207 OA
BRANCH  14  15
ATOM     15  C   UNL     1      43.838  19.958  20.217  0.00  0.00    +0.085 A 
ATOM     16  C   UNL     1      42.651  19.373  19.801  0.00  0.00    +0.005 A 
ATOM     17  C   UNL     1      41.667  20.146  19.215  0.00  0.00    +0.055 A 
ATOM     18  C   UNL     1      41.863  21.507  19.042  0.00  0.00    +0.090 A 
ATOM     21  C   UNL     1      43.053  22.095  19.459  0.00  0.00    +0.118 A 
ATOM     24  C   UNL     1      44.037  21.321  20.051  0.00  0.00    -0.045 A 
BRANCH  18  19
ATOM     19  O   UNL     1      40.894  22.267  18.465  0.00  0.00    -0.483 OA
ATOM     20  H   UNL     1      41.230  23.036  17.983  0.00  0.00    +0.393 HD
ENDBRANCH  18  19
BRANCH  21  22
ATOM     22  O   UNL     1      43.248  23.430  19.291  0.00  0.00    -0.301 OA
ATOM     23  C   UNL     1      44.592  23.907  19.382  0.00  0.00    +0.245 C 
ENDBRANCH  21  22
ENDBRANCH  14  15
ENDBRANCH  13  14
TORSDOF 7
ENDMDL
MODEL 3
REMARK VINA RESULT:      -5.9      1.579      6.930
REMARK  Name = ZINC95486287
REMARK  11 active torsions:
REMARK  status: ('A' for Active; 'I' for Inactive)
REMARK    1  A    between atoms: C1_1  and  C2_2
REMARK    2  A    between atoms: C3_3  and  O8_26
REMARK    3  A    between atoms: C7_7  and  O1_8
REMARK    4  A    between atoms: C9_11  and  O7_24
REMARK    5  A    between atoms: C10_12  and  O4_14
REMARK    6  A    between atoms: O4_14  and  C11_15
REMARK    7  A    between atoms: C14_18  and  O6_23
REMARK    8  A    between atoms: C15_19  and  O5_21
REMARK    9  A    between atoms: O5_21  and  C17_22
REMARK   10  A    between atoms: O7_24  and  C18_25
REMARK   11  A    between atoms: O8_26  and  C19_27
REMARK                            x       y       z     vdW  Elec       q    Type
REMARK                         _______ _______ _______ _____ _____    ______ ____
ROOT
ATOM      1  C   UNL     1      41.735  21.532  19.202  0.00  0.00    +0.122 C 
ATOM      2  C   UNL     1      43.217  21.306  19.355  0.00  0.00    -0.171 A 
ATOM      3  C   UNL     1      44.080  22.393  19.445  0.00  0.00    +0.212 A 
ATOM      6  C   UNL     1      45.445  22.201  19.586  0.00  0.00    -0.089 A 
ATOM      7  C   UNL     1      45.964  20.917  19.639  0.00  0.00    +0.211 A 
ATOM      8  C   UNL     1      45.094  19.816  19.548  0.00  0.00    -0.279 A 
ATOM      9  C   UNL     1      45.668  18.462  19.606  0.00  0.00    +0.444 A 
ATOM     10  C   UNL     1      47.071  18.354  19.751  0.00  0.00    -0.074 A 
ATOM     13  C   UNL     1      47.824  19.484  19.829  0.00  0.00    +0.222 A 
ATOM     25  O   UNL     1      44.960  17.469  19.532  0.00  0.00    -0.430 OA
ATOM     26  O   UNL     1      47.290  20.712  19.775  0.00  0.00    -0.233 OA
ATOM     27  C   UNL     1      43.715  20.017  19.411  0.00  0.00    +0.241 A 
ENDROOT
BRANCH   3   4
ATOM      4  O   UNL     1      43.579  23.654  19.395  0.00  0.00    -0.296 OA
ATOM      5  C   UNL     1      44.408  24.658  18.805  0.00  0.00    +0.255 C 
ENDBRANCH   3   4
BRANCH  10  11
ATOM     11  O   UNL     1      47.663  17.129  19.811  0.00  0.00    -0.285 OA
ATOM     12  C   UNL     1      47.778  16.526  21.101  0.00  0.00    +0.257 C 
ENDBRANCH  10  11
BRANCH  27  28
ATOM     28  O   UNL     1      42.874  18.955  19.330  0.00  0.00    -0.466 OA
ATOM     29  H   UNL     1      42.529  18.661  20.184  0.00  0.00    +0.404 HD
ENDBRANCH  27  28
BRANCH  13  14
ATOM     14  O   UNL     1      49.163  19.362  19.967  0.00  0.00    -0.207 OA
BRANCH  14  15
ATOM     15  C   UNL     1      49.942  19.613  18.881  0.00  0.00    +0.085 A 
ATOM     16  C   UNL     1      50.353  20.910  18.608  0.00  0.00    +0.005 A 
ATOM     17  C   UNL     1      51.144  21.167  17.505  0.00  0.00    +0.055 A 
ATOM     18  C   UNL     1      51.528  20.131  16.668  0.00  0.00    +0.090 A 
ATOM     21  C   UNL     1      51.117  18.830  16.940  0.00  0.00    +0.118 A 
ATOM     24  C   UNL     1      50.329  18.572  18.050  0.00  0.00    -0.045 A 
BRANCH  18  19
ATOM     19  O   UNL     1      52.307  20.386  15.582  0.00  0.00    -0.483 OA
ATOM     20  H   UNL     1      52.033  19.916  14.782  0.00  0.00    +0.393 HD
ENDBRANCH  18  19
BRANCH  21  22
ATOM     22  O   UNL     1      51.493  17.812  16.122  0.00  0.00    -0.301 OA
ATOM     23  C   UNL     1      51.742  16.545  16.733  0.00  0.00    +0.245 C 
ENDBRANCH  21  22
ENDBRANCH  14  15
ENDBRANCH  13  14
TORSDOF 7
ENDMDL
MODEL 4
REMARK VINA RESULT:      -5.9      2.438      4.571
REMARK  Name = ZINC95486287
REMARK  11 active torsions:
REMARK  status: ('A' for Active; 'I' for Inactive)
REMARK    1  A    between atoms: C1_1  and  C2_2
REMARK    2  A    between atoms: C3_3  and  O8_26
REMARK    3  A    between atoms: C7_7  and  O1_8
REMARK    4  A    between atoms: C9_11  and  O7_24
REMARK    5  A    between atoms: C10_12  and  O4_14
REMARK    6  A    between atoms: O4_14  and  C11_15
REMARK    7  A    between atoms: C14_18  and  O6_23
REMARK    8  A    between atoms: C15_19  and  O5_21
REMARK    9  A    between atoms: O5_21  and  C17_22
REMARK   10  A    between atoms: O7_24  and  C18_25
REMARK   11  A    between atoms: O8_26  and  C19_27
REMARK                            x       y       z     vdW  Elec       q    Type
REMARK                         _______ _______ _______ _____ _____    ______ ____
ROOT
ATOM      1  C   UNL     1      49.854  14.640  17.006  0.00  0.00    +0.122 C 
ATOM      2  C   UNL     1      48.761  15.645  17.264  0.00  0.00    -0.171 A 
ATOM      3  C   UNL     1      47.454  15.363  16.878  0.00  0.00    +0.212 A 
ATOM      6  C   UNL     1      46.438  16.276  17.108  0.00  0.00    -0.089 A 
ATOM      7  C   UNL     1      46.717  17.483  17.730  0.00  0.00    +0.211 A 
ATOM      8  C   UNL     1      48.036  17.770  18.121  0.00  0.00    -0.279 A 
ATOM      9  C   UNL     1      48.307  19.059  18.779  0.00  0.00    +0.444 A 
ATOM     10  C   UNL     1      47.214  19.933  18.976  0.00  0.00    -0.074 A 
ATOM     13  C   UNL     1      45.974  19.560  18.559  0.00  0.00    +0.222 A 
ATOM     25  O   UNL     1      49.434  19.362  19.140  0.00  0.00    -0.430 OA
ATOM     26  O   UNL     1      45.739  18.384  17.960  0.00  0.00    -0.233 OA
ATOM     27  C   UNL     1      49.058  16.841  17.890  0.00  0.00    +0.241 A 
ENDROOT
BRANCH   3   4
ATOM      4  O   UNL     1      47.173  14.183  16.269  0.00  0.00    -0.296 OA
ATOM      5  C   UNL     1      46.471  13.206  17.040  0.00  0.00    +0.255 C 
ENDBRANCH   3   4
BRANCH  10  11
ATOM     11  O   UNL     1      47.399  21.141  19.579  0.00  0.00    -0.285 OA
ATOM     12  C   UNL     1      47.324  21.173  21.005  0.00  0.00    +0.257 C 
ENDBRANCH  10  11
BRANCH  27  28
ATOM     28  O   UNL     1      50.330  17.114  18.273  0.00  0.00    -0.466 OA
ATOM     29  H   UNL     1      50.553  18.055  18.252  0.00  0.00    +0.404 HD
ENDBRANCH  27  28
BRANCH  13  14
ATOM     14  O   UNL     1      44.941  20.408  18.755  0.00  0.00    -0.207 OA
BRANCH  14  15
ATOM     15  C   UNL     1      43.852  19.944  19.424  0.00  0.00    +0.085 A 
ATOM     16  C   UNL     1      42.583  20.127  18.893  0.00  0.00    +0.005 A 
ATOM     17  C   UNL     1      41.475  19.657  19.572  0.00  0.00    +0.055 A 
ATOM     18  C   UNL     1      41.628  19.002  20.784  0.00  0.00    +0.090 A 
ATOM     21  C   UNL     1      42.900  18.818  21.317  0.00  0.00    +0.118 A 
ATOM     24  C   UNL     1      44.010  19.284  20.633  0.00  0.00    -0.045 A 
BRANCH  18  19
ATOM     19  O   UNL     1      40.536  18.540  21.451  0.00  0.00    -0.483 OA
ATOM     20  H   UNL     1      40.690  18.378  22.392  0.00  0.00    +0.393 HD
ENDBRANCH  18  19
BRANCH  21  22
ATOM     22  O   UNL     1      43.053  18.175  22.505  0.00  0.00    -0.301 OA
ATOM     23  C   UNL     1      43.591  16.852  22.464  0.00  0.00    +0.245 C 
ENDBRANCH  21  22
ENDBRANCH  14  15
ENDBRANCH  13  14
TORSDOF 7
ENDMDL
MODEL 5
REMARK VINA RESULT:      -5.8      2.304      4.228
REMARK  Name = ZINC95486287
REMARK  11 active torsions:
REMARK  status: ('A' for Active; 'I' for Inactive)
REMARK    1  A    between atoms: C1_1  and  C2_2
REMARK    2  A    between atoms: C3_3  and  O8_26
REMARK    3  A    between atoms: C7_7  and  O1_8
REMARK    4  A    between atoms: C9_11  and  O7_24
REMARK    5  A    between atoms: C10_12  and  O4_14
REMARK    6  A    between atoms: O4_14  and  C11_15
REMARK    7  A    between atoms: C14_18  and  O6_23
REMARK    8  A    between atoms: C15_19  and  O5_21
REMARK    9  A    between atoms: O5_21  and  C17_22
REMARK   10  A    between atoms: O7_24  and  C18_25
REMARK   11  A    between atoms: O8_26  and  C19_27
REMARK                            x       y       z     vdW  Elec       q    Type
REMARK                         _______ _______ _______ _____ _____    ______ ____
ROOT
ATOM      1  C   UNL     1      49.915  14.634  17.031  0.00  0.00    +0.122 C 
ATOM      2  C   UNL     1      48.842  15.664  17.274  0.00  0.00    -0.171 A 
ATOM      3  C   UNL     1      47.540  15.424  16.848  0.00  0.00    +0.212 A 
ATOM      6  C   UNL     1      46.542  16.360  17.065  0.00  0.00    -0.089 A 
ATOM      7  C   UNL     1      46.836  17.551  17.712  0.00  0.00    +0.211 A 
ATOM      8  C   UNL     1      48.151  17.796  18.142  0.00  0.00    -0.279 A 
ATOM      9  C   UNL     1      48.439  19.068  18.826  0.00  0.00    +0.444 A 
ATOM     10  C   UNL     1      47.364  19.969  19.007  0.00  0.00    -0.074 A 
ATOM     13  C   UNL     1      46.127  19.635  18.551  0.00  0.00    +0.222 A 
ATOM     25  O   UNL     1      49.563  19.335  19.223  0.00  0.00    -0.430 OA
ATOM     26  O   UNL     1      45.876  18.475  17.929  0.00  0.00    -0.233 OA
ATOM     27  C   UNL     1      49.153  16.843  17.925  0.00  0.00    +0.241 A 
ENDROOT
BRANCH   3   4
ATOM      4  O   UNL     1      47.243  14.260  16.215  0.00  0.00    -0.296 OA
ATOM      5  C   UNL     1      46.458  13.310  16.937  0.00  0.00    +0.255 C 
ENDBRANCH   3   4
BRANCH  10  11
ATOM     11  O   UNL     1      47.565  21.162  19.633  0.00  0.00    -0.285 OA
ATOM     12  C   UNL     1      47.468  21.173  21.058  0.00  0.00    +0.257 C 
ENDBRANCH  10  11
BRANCH  27  28
ATOM     28  O   UNL     1      50.421  17.077  18.347  0.00  0.00    -0.466 OA
ATOM     29  H   UNL     1      51.101  16.673  17.790  0.00  0.00    +0.404 HD
ENDBRANCH  27  28
BRANCH  13  14
ATOM     14  O   UNL     1      45.111  20.508  18.732  0.00  0.00    -0.207 OA
BRANCH  14  15
ATOM     15  C   UNL     1      44.008  20.076  19.398  0.00  0.00    +0.085 A 
ATOM     16  C   UNL     1      44.148  19.332  20.561  0.00  0.00    +0.005 A 
ATOM     17  C   UNL     1      43.027  18.891  21.239  0.00  0.00    +0.055 A 
ATOM     18  C   UNL     1      41.762  19.188  20.758  0.00  0.00    +0.090 A 
ATOM     21  C   UNL     1      41.620  19.934  19.592  0.00  0.00    +0.118 A 
ATOM     24  C   UNL     1      42.743  20.381  18.917  0.00  0.00    -0.045 A 
BRANCH  18  19
ATOM     19  O   UNL     1      40.660  18.752  21.426  0.00  0.00    -0.483 OA
ATOM     20  H   UNL     1      40.727  17.841  21.744  0.00  0.00    +0.393 HD
ENDBRANCH  18  19
BRANCH  21  22
ATOM     22  O   UNL     1      40.380  20.227  19.119  0.00  0.00    -0.301 OA
ATOM     23  C   UNL     1      40.181  21.540  18.589  0.00  0.00    +0.245 C 
ENDBRANCH  21  22
ENDBRANCH  14  15
ENDBRANCH  13  14
TORSDOF 7
ENDMDL
MODEL 6
REMARK VINA RESULT:      -5.8      1.791      7.272
REMARK  Name = ZINC95486287
REMARK  11 active torsions:
REMARK  status: ('A' for Active; 'I' for Inactive)
REMARK    1  A    between atoms: C1_1  and  C2_2
REMARK    2  A    between atoms: C3_3  and  O8_26
REMARK    3  A    between atoms: C7_7  and  O1_8
REMARK    4  A    between atoms: C9_11  and  O7_24
REMARK    5  A    between atoms: C10_12  and  O4_14
REMARK    6  A    between atoms: O4_14  and  C11_15
REMARK    7  A    between atoms: C14_18  and  O6_23
REMARK    8  A    between atoms: C15_19  and  O5_21
REMARK    9  A    between atoms: O5_21  and  C17_22
REMARK   10  A    between atoms: O7_24  and  C18_25
REMARK   11  A    between atoms: O8_26  and  C19_27
REMARK                            x       y       z     vdW  Elec       q    Type
REMARK                         _______ _______ _______ _____ _____    ______ ____
ROOT
ATOM      1  C   UNL     1      41.021  19.209  21.357  0.00  0.00    +0.122 C 
ATOM      2  C   UNL     1      42.320  19.030  20.613  0.00  0.00    -0.171 A 
ATOM      3  C   UNL     1      42.576  19.785  19.473  0.00  0.00    +0.212 A 
ATOM      6  C   UNL     1      43.766  19.633  18.779  0.00  0.00    -0.089 A 
ATOM      7  C   UNL     1      44.714  18.722  19.217  0.00  0.00    +0.211 A 
ATOM      8  C   UNL     1      44.457  17.958  20.368  0.00  0.00    -0.279 A 
ATOM      9  C   UNL     1      45.479  16.997  20.814  0.00  0.00    +0.444 A 
ATOM     10  C   UNL     1      46.665  16.904  20.049  0.00  0.00    -0.074 A 
ATOM     13  C   UNL     1      46.815  17.689  18.949  0.00  0.00    +0.222 A 
ATOM     25  O   UNL     1      45.311  16.307  21.808  0.00  0.00    -0.430 OA
ATOM     26  O   UNL     1      45.877  18.561  18.552  0.00  0.00    -0.233 OA
ATOM     27  C   UNL     1      43.256  18.121  21.069  0.00  0.00    +0.241 A 
ENDROOT
BRANCH   3   4
ATOM      4  O   UNL     1      41.653  20.680  19.038  0.00  0.00    -0.296 OA
ATOM      5  C   UNL     1      40.731  20.229  18.043  0.00  0.00    +0.255 C 
ENDBRANCH   3   4
BRANCH  10  11
ATOM     11  O   UNL     1      47.649  16.034  20.409  0.00  0.00    -0.285 OA
ATOM     12  C   UNL     1      47.581  14.715  19.864  0.00  0.00    +0.257 C 
ENDBRANCH  10  11
BRANCH  27  28
ATOM     28  O   UNL     1      43.010  17.388  22.184  0.00  0.00    -0.466 OA
ATOM     29  H   UNL     1      42.072  17.318  22.410  0.00  0.00    +0.404 HD
ENDBRANCH  27  28
BRANCH  13  14
ATOM     14  O   UNL     1      47.953  17.587  18.228  0.00  0.00    -0.207 OA
BRANCH  14  15
ATOM     15  C   UNL     1      48.871  18.584  18.338  0.00  0.00    +0.085 A 
ATOM     16  C   UNL     1      48.579  19.715  19.088  0.00  0.00    +0.005 A 
ATOM     17  C   UNL     1      49.509  20.730  19.200  0.00  0.00    +0.055 A 
ATOM     18  C   UNL     1      50.735  20.623  18.563  0.00  0.00    +0.090 A 
ATOM     21  C   UNL     1      51.030  19.490  17.811  0.00  0.00    +0.118 A 
ATOM     24  C   UNL     1      50.099  18.470  17.704  0.00  0.00    -0.045 A 
BRANCH  18  19
ATOM     19  O   UNL     1      51.650  21.623  18.674  0.00  0.00    -0.483 OA
ATOM     20  H   UNL     1      52.560  21.346  18.501  0.00  0.00    +0.393 HD
ENDBRANCH  18  19
BRANCH  21  22
ATOM     22  O   UNL     1      52.232  19.382  17.186  0.00  0.00    -0.301 OA
ATOM     23  C   UNL     1      52.256  19.620  15.777  0.00  0.00    +0.245 C 
ENDBRANCH  21  22
ENDBRANCH  14  15
ENDBRANCH  13  14
TORSDOF 7
ENDMDL
MODEL 7
REMARK VINA RESULT:      -5.7      2.446      6.520
REMARK  Name = ZINC95486287
REMARK  11 active torsions:
REMARK  status: ('A' for Active; 'I' for Inactive)
REMARK    1  A    between atoms: C1_1  and  C2_2
REMARK    2  A    between atoms: C3_3  and  O8_26
REMARK    3  A    between atoms: C7_7  and  O1_8
REMARK    4  A    between atoms: C9_11  and  O7_24
REMARK    5  A    between atoms: C10_12  and  O4_14
REMARK    6  A    between atoms: O4_14  and  C11_15
REMARK    7  A    between atoms: C14_18  and  O6_23
REMARK    8  A    between atoms: C15_19  and  O5_21
REMARK    9  A    between atoms: O5_21  and  C17_22
REMARK   10  A    between atoms: O7_24  and  C18_25
REMARK   11  A    between atoms: O8_26  and  C19_27
REMARK                            x       y       z     vdW  Elec       q    Type
REMARK                         _______ _______ _______ _____ _____    ______ ____
ROOT
ATOM      1  C   UNL     1      45.724  13.246  18.171  0.00  0.00    +0.122 C 
ATOM      2  C   UNL     1      46.247  14.658  18.237  0.00  0.00    -0.171 A 
ATOM      3  C   UNL     1      47.212  15.084  17.331  0.00  0.00    +0.212 A 
ATOM      6  C   UNL     1      47.703  16.379  17.379  0.00  0.00    -0.089 A 
ATOM      7  C   UNL     1      47.232  17.264  18.335  0.00  0.00    +0.211 A 
ATOM      8  C   UNL     1      46.257  16.837  19.252  0.00  0.00    -0.279 A 
ATOM      9  C   UNL     1      45.773  17.795  20.259  0.00  0.00    +0.444 A 
ATOM     10  C   UNL     1      46.325  19.097  20.239  0.00  0.00    -0.074 A 
ATOM     13  C   UNL     1      47.267  19.410  19.309  0.00  0.00    +0.222 A 
ATOM     25  O   UNL     1      44.926  17.479  21.081  0.00  0.00    -0.430 OA
ATOM     26  O   UNL     1      47.700  18.528  18.397  0.00  0.00    -0.233 OA
ATOM     27  C   UNL     1      45.761  15.528  19.195  0.00  0.00    +0.241 A 
ENDROOT
BRANCH   3   4
ATOM      4  O   UNL     1      47.678  14.222  16.391  0.00  0.00    -0.296 OA
ATOM      5  C   UNL     1      49.088  13.988  16.366  0.00  0.00    +0.255 C 
ENDBRANCH   3   4
BRANCH  10  11
ATOM     11  O   UNL     1      45.919  20.030  21.145  0.00  0.00    -0.285 OA
ATOM     12  C   UNL     1      44.817  20.859  20.772  0.00  0.00    +0.257 C 
ENDBRANCH  10  11
BRANCH  27  28
ATOM     28  O   UNL     1      44.815  15.116  20.076  0.00  0.00    -0.466 OA
ATOM     29  H   UNL     1      44.850  14.171  20.277  0.00  0.00    +0.404 HD
ENDBRANCH  27  28
BRANCH  13  14
ATOM     14  O   UNL     1      47.785  20.658  19.305  0.00  0.00    -0.207 OA
BRANCH  14  15
ATOM     15  C   UNL     1      49.136  20.788  19.239  0.00  0.00    +0.085 A 
ATOM     16  C   UNL     1      49.894  20.749  20.401  0.00  0.00    +0.005 A 
ATOM     17  C   UNL     1      51.268  20.882  20.336  0.00  0.00    +0.055 A 
ATOM     18  C   UNL     1      51.892  21.056  19.111  0.00  0.00    +0.090 A 
ATOM     21  C   UNL     1      51.134  21.096  17.945  0.00  0.00    +0.118 A 
ATOM     24  C   UNL     1      49.758  20.957  18.010  0.00  0.00    -0.045 A 
BRANCH  18  19
ATOM     19  O   UNL     1      53.245  21.188  19.050  0.00  0.00    -0.483 OA
ATOM     20  H   UNL     1      53.724  20.348  19.075  0.00  0.00    +0.393 HD
ENDBRANCH  18  19
BRANCH  21  22
ATOM     22  O   UNL     1      51.745  21.267  16.743  0.00  0.00    -0.301 OA
ATOM     23  C   UNL     1      51.891  20.108  15.919  0.00  0.00    +0.245 C 
ENDBRANCH  21  22
ENDBRANCH  14  15
ENDBRANCH  13  14
TORSDOF 7
ENDMDL
MODEL 8
REMARK VINA RESULT:      -5.7      2.678      7.660
REMARK  Name = ZINC95486287
REMARK  11 active torsions:
REMARK  status: ('A' for Active; 'I' for Inactive)
REMARK    1  A    between atoms: C1_1  and  C2_2
REMARK    2  A    between atoms: C3_3  and  O8_26
REMARK    3  A    between atoms: C7_7  and  O1_8
REMARK    4  A    between atoms: C9_11  and  O7_24
REMARK    5  A    between atoms: C10_12  and  O4_14
REMARK    6  A    between atoms: O4_14  and  C11_15
REMARK    7  A    between atoms: C14_18  and  O6_23
REMARK    8  A    between atoms: C15_19  and  O5_21
REMARK    9  A    between atoms: O5_21  and  C17_22
REMARK   10  A    between atoms: O7_24  and  C18_25
REMARK   11  A    between atoms: O8_26  and  C19_27
REMARK                            x       y       z     vdW  Elec       q    Type
REMARK                         _______ _______ _______ _____ _____    ______ ____
ROOT
ATOM      1  C   UNL     1      42.514  22.257  19.269  0.00  0.00    +0.122 C 
ATOM      2  C   UNL     1      43.215  20.931  19.427  0.00  0.00    -0.171 A 
ATOM      3  C   UNL     1      42.492  19.806  19.810  0.00  0.00    +0.212 A 
ATOM      6  C   UNL     1      43.121  18.580  19.959  0.00  0.00    -0.089 A 
ATOM      7  C   UNL     1      44.483  18.466  19.726  0.00  0.00    +0.211 A 
ATOM      8  C   UNL     1      45.215  19.601  19.339  0.00  0.00    -0.279 A 
ATOM      9  C   UNL     1      46.660  19.455  19.097  0.00  0.00    +0.444 A 
ATOM     10  C   UNL     1      47.223  18.170  19.271  0.00  0.00    -0.074 A 
ATOM     13  C   UNL     1      46.426  17.135  19.650  0.00  0.00    +0.222 A 
ATOM     25  O   UNL     1      47.346  20.407  18.758  0.00  0.00    -0.430 OA
ATOM     26  O   UNL     1      45.111  17.280  19.868  0.00  0.00    -0.233 OA
ATOM     27  C   UNL     1      44.572  20.836  19.184  0.00  0.00    +0.241 A 
ENDROOT
BRANCH   3   4
ATOM      4  O   UNL     1      41.158  19.909  20.040  0.00  0.00    -0.296 OA
ATOM      5  C   UNL     1      40.639  19.214  21.176  0.00  0.00    +0.255 C 
ENDBRANCH   3   4
BRANCH  10  11
ATOM     11  O   UNL     1      48.555  17.969  19.063  0.00  0.00    -0.285 OA
ATOM     12  C   UNL     1      48.982  17.805  17.710  0.00  0.00    +0.257 C 
ENDBRANCH  10  11
BRANCH  27  28
ATOM     28  O   UNL     1      45.277  21.931  18.804  0.00  0.00    -0.466 OA
ATOM     29  H   UNL     1      46.212  21.756  18.632  0.00  0.00    +0.404 HD
ENDBRANCH  27  28
BRANCH  13  14
ATOM     14  O   UNL     1      46.981  15.914  19.812  0.00  0.00    -0.207 OA
BRANCH  14  15
ATOM     15  C   UNL     1      46.577  14.914  18.985  0.00  0.00    +0.085 A 
ATOM     16  C   UNL     1      45.555  14.061  19.377  0.00  0.00    +0.005 A 
ATOM     17  C   UNL     1      45.143  13.043  18.538  0.00  0.00    +0.055 A 
ATOM     18  C   UNL     1      45.751  12.870  17.304  0.00  0.00    +0.090 A 
ATOM     21  C   UNL     1      46.776  13.724  16.910  0.00  0.00    +0.118 A 
ATOM     24  C   UNL     1      47.184  14.748  17.749  0.00  0.00    -0.045 A 
BRANCH  18  19
ATOM     19  O   UNL     1      45.345  11.867  16.480  0.00  0.00    -0.483 OA
ATOM     20  H   UNL     1      45.515  10.980  16.826  0.00  0.00    +0.393 HD
ENDBRANCH  18  19
BRANCH  21  22
ATOM     22  O   UNL     1      47.373  13.558  15.700  0.00  0.00    -0.301 OA
ATOM     23  C   UNL     1      48.781  13.312  15.699  0.00  0.00    +0.245 C 
ENDBRANCH  21  22
ENDBRANCH  14  15
ENDBRANCH  13  14
TORSDOF 7
ENDMDL
MODEL 9
REMARK VINA RESULT:      -5.6      2.865      7.361
REMARK  Name = ZINC95486287
REMARK  11 active torsions:
REMARK  status: ('A' for Active; 'I' for Inactive)
REMARK    1  A    between atoms: C1_1  and  C2_2
REMARK    2  A    between atoms: C3_3  and  O8_26
REMARK    3  A    between atoms: C7_7  and  O1_8
REMARK    4  A    between atoms: C9_11  and  O7_24
REMARK    5  A    between atoms: C10_12  and  O4_14
REMARK    6  A    between atoms: O4_14  and  C11_15
REMARK    7  A    between atoms: C14_18  and  O6_23
REMARK    8  A    between atoms: C15_19  and  O5_21
REMARK    9  A    between atoms: O5_21  and  C17_22
REMARK   10  A    between atoms: O7_24  and  C18_25
REMARK   11  A    between atoms: O8_26  and  C19_27
REMARK                            x       y       z     vdW  Elec       q    Type
REMARK                         _______ _______ _______ _____ _____    ______ ____
ROOT
ATOM      1  C   UNL     1      42.784  23.494  19.172  0.00  0.00    +0.122 C 
ATOM      2  C   UNL     1      43.047  22.037  19.460  0.00  0.00    -0.171 A 
ATOM      3  C   UNL     1      42.170  21.067  18.986  0.00  0.00    +0.212 A 
ATOM      6  C   UNL     1      42.398  19.724  19.242  0.00  0.00    -0.089 A 
ATOM      7  C   UNL     1      43.508  19.336  19.975  0.00  0.00    +0.211 A 
ATOM      8  C   UNL     1      44.396  20.315  20.455  0.00  0.00    -0.279 A 
ATOM      9  C   UNL     1      45.568  19.878  21.232  0.00  0.00    +0.444 A 
ATOM     10  C   UNL     1      45.726  18.490  21.447  0.00  0.00    -0.074 A 
ATOM     13  C   UNL     1      44.808  17.624  20.941  0.00  0.00    +0.222 A 
ATOM     25  O   UNL     1      46.373  20.684  21.673  0.00  0.00    -0.430 OA
ATOM     26  O   UNL     1      43.744  18.033  20.235  0.00  0.00    -0.233 OA
ATOM     27  C   UNL     1      44.163  21.670  20.188  0.00  0.00    +0.241 A 
ENDROOT
BRANCH   3   4
ATOM      4  O   UNL     1      41.080  21.439  18.267  0.00  0.00    -0.296 OA
ATOM      5  C   UNL     1      39.805  21.273  18.888  0.00  0.00    +0.255 C 
ENDBRANCH   3   4
BRANCH  10  11
ATOM     11  O   UNL     1      46.790  18.022  22.159  0.00  0.00    -0.285 OA
ATOM     12  C   UNL     1      48.011  17.822  21.444  0.00  0.00    +0.257 C 
ENDBRANCH  10  11
BRANCH  27  28
ATOM     28  O   UNL     1      45.023  22.614  20.645  0.00  0.00    -0.466 OA
ATOM     29  H   UNL     1      44.802  23.514  20.368  0.00  0.00    +0.404 HD
ENDBRANCH  27  28
BRANCH  13  14
ATOM     14  O   UNL     1      44.975  16.301  21.157  0.00  0.00    -0.207 OA
BRANCH  14  15
ATOM     15  C   UNL     1      45.339  15.522  20.103  0.00  0.00    +0.085 A 
ATOM     16  C   UNL     1      45.148  14.149  20.158  0.00  0.00    +0.005 A 
ATOM     17  C   UNL     1      45.518  13.356  19.089  0.00  0.00    +0.055 A 
ATOM     18  C   UNL     1      46.080  13.930  17.959  0.00  0.00    +0.090 A 
ATOM     21  C   UNL     1      46.272  15.307  17.903  0.00  0.00    +0.118 A 
ATOM     24  C   UNL     1      45.895  16.102  18.973  0.00  0.00    -0.045 A 
BRANCH  18  19
ATOM     19  O   UNL     1      46.445  13.148  16.908  0.00  0.00    -0.483 OA
ATOM     20  H   UNL     1      45.996  12.292  16.880  0.00  0.00    +0.393 HD
ENDBRANCH  18  19
BRANCH  21  22
ATOM     22  O   UNL     1      46.823  15.872  16.796  0.00  0.00    -0.301 OA
ATOM     23  C   UNL     1      47.365  17.187  16.939  0.00  0.00    +0.245 C 
ENDBRANCH  21  22
ENDBRANCH  14  15
ENDBRANCH  13  14
TORSDOF 7
ENDMDL
