MODEL 1
REMARK VINA RESULT:      -5.8      0.000      0.000
REMARK  Name = ZINC95486239
REMARK  22 active torsions:
REMARK  status: ('A' for Active; 'I' for Inactive)
REMARK    1  A    between atoms: C1_1  and  C2_2
REMARK    2  A    between atoms: C1_1  and  C19_31
REMARK    3  A    between atoms: C2_2  and  C3_3
REMARK    4  A    between atoms: C3_3  and  C4_4
REMARK    5  A    between atoms: C4_4  and  C5_5
REMARK    6  A    between atoms: C5_5  and  C6_7
REMARK    7  A    between atoms: C6_7  and  C7_8
REMARK    8  A    between atoms: C7_8  and  C8_9
REMARK    9  A    between atoms: C8_9  and  C9_10
REMARK   10  A    between atoms: C9_10  and  C10_11
REMARK   11  A    between atoms: C10_11  and  C11_12
REMARK   12  A    between atoms: C11_12  and  C12_13
REMARK   13  A    between atoms: C12_13  and  O2_14
REMARK   14  A    between atoms: O2_14  and  C13_15
REMARK   15  A    between atoms: C14_17  and  O7_30
REMARK   16  A    between atoms: C15_19  and  O6_29
REMARK   17  A    between atoms: C16_21  and  O5_28
REMARK   18  A    between atoms: C17_23  and  C18_26
REMARK   19  A    between atoms: C18_26  and  O4_27
REMARK   20  A    between atoms: C19_31  and  C20_32
REMARK   21  A    between atoms: C20_32  and  C21_33
REMARK   22  A    between atoms: C21_33  and  C22_34
REMARK                            x       y       z     vdW  Elec       q    Type
REMARK                         _______ _______ _______ _____ _____    ______ ____
ROOT
ATOM     17  C   UNL     1      42.939  17.351  22.152  0.00  0.00    +0.024 C 
ENDROOT
BRANCH  17  16
ATOM     16  C   UNL     1      43.966  16.232  22.335  0.00  0.00    +0.012 C 
BRANCH  16  15
ATOM     15  C   UNL     1      45.014  16.315  21.223  0.00  0.00    +0.009 C 
BRANCH  15  14
ATOM     14  C   UNL     1      45.103  14.968  20.505  0.00  0.00    +0.005 C 
BRANCH  14  13
ATOM     13  C   UNL     1      45.748  15.164  19.131  0.00  0.00    +0.022 C 
BRANCH  13  12
ATOM     12  C   UNL     1      45.789  16.657  18.796  0.00  0.00    +0.020 C 
BRANCH  12  11
ATOM     11  C   UNL     1      46.643  16.874  17.573  0.00  0.00    +0.352 C 
ATOM     35  O   UNL     1      46.389  16.288  16.548  0.00  0.00    -0.451 OA
BRANCH  11  10
ATOM     10  C   UNL     1      47.812  17.823  17.628  0.00  0.00    +0.021 C 
BRANCH  10   9
ATOM      9  C   UNL     1      48.011  18.306  19.065  0.00  0.00    +0.020 C 
BRANCH   9   8
ATOM      8  C   UNL     1      47.445  19.720  19.212  0.00  0.00    +0.001 C 
BRANCH   8   1
ATOM      1  C   UNL     1      48.578  20.739  19.071  0.00  0.00    +0.001 C 
BRANCH   1   2
ATOM      2  C   UNL     1      49.856  20.170  19.691  0.00  0.00    -0.012 C 
BRANCH   2   3
ATOM      3  C   UNL     1      51.060  20.981  19.209  0.00  0.00    +0.021 C 
BRANCH   3   4
ATOM      4  C   UNL     1      51.083  21.000  17.680  0.00  0.00    -0.076 C 
BRANCH   4   5
ATOM      5  C   UNL     1      52.118  20.026  17.179  0.00  0.00    +0.487 C 
ATOM      6  O   UNL     1      52.234  19.822  15.984  0.00  0.00    -0.710 OA
ATOM      7  O   UNL     1      52.837  19.441  17.971  0.00  0.00    -0.700 OA
ENDBRANCH   4   5
ENDBRANCH   3   4
ENDBRANCH   2   3
ENDBRANCH   1   2
ENDBRANCH   8   1
ENDBRANCH   9   8
ENDBRANCH  10   9
ENDBRANCH  11  10
ENDBRANCH  12  11
ENDBRANCH  13  12
ENDBRANCH  14  13
ENDBRANCH  15  14
ENDBRANCH  16  15
ENDBRANCH  17  16
BRANCH  17  18
ATOM     18  C   UNL     1      43.467  18.366  21.136  0.00  0.00    +0.178 C 
BRANCH  18  19
ATOM     19  O   UNL     1      42.586  18.416  20.013  0.00  0.00    -0.366 OA
BRANCH  19  20
ATOM     20  C   UNL     1      42.631  19.650  19.293  0.00  0.00    +0.286 C 
ATOM     21  C   UNL     1      41.213  20.206  19.143  0.00  0.00    +0.137 C 
ATOM     24  C   UNL     1      41.276  21.558  18.425  0.00  0.00    +0.164 C 
ATOM     27  C   UNL     1      42.190  22.501  19.213  0.00  0.00    +0.177 C 
ATOM     30  C   UNL     1      43.571  21.856  19.361  0.00  0.00    +0.190 C 
ATOM     34  O   UNL     1      43.437  20.590  20.009  0.00  0.00    -0.373 OA
BRANCH  21  22
ATOM     22  O   UNL     1      40.629  20.379  20.436  0.00  0.00    -0.540 OA
ATOM     23  H   UNL     1      39.844  19.834  20.589  0.00  0.00    +0.389 HD
ENDBRANCH  21  22
BRANCH  24  25
ATOM     25  O   UNL     1      39.963  22.117  18.344  0.00  0.00    -0.548 OA
ATOM     26  H   UNL     1      39.685  22.584  19.143  0.00  0.00    +0.386 HD
ENDBRANCH  24  25
BRANCH  27  28
ATOM     28  O   UNL     1      42.313  23.741  18.515  0.00  0.00    -0.557 OA
ATOM     29  H   UNL     1      41.529  23.983  18.002  0.00  0.00    +0.393 HD
ENDBRANCH  27  28
BRANCH  30  31
ATOM     31  C   UNL     1      44.471  22.765  20.198  0.00  0.00    +0.223 C 
BRANCH  31  32
ATOM     32  O   UNL     1      43.723  23.300  21.291  0.00  0.00    -0.568 OA
ATOM     33  H   UNL     1      43.077  22.684  21.665  0.00  0.00    +0.384 HD
ENDBRANCH  31  32
ENDBRANCH  30  31
ENDBRANCH  19  20
ENDBRANCH  18  19
ENDBRANCH  17  18
TORSDOF 22
ENDMDL
MODEL 2
REMARK VINA RESULT:      -5.5      1.951      3.749
REMARK  Name = ZINC95486239
REMARK  22 active torsions:
REMARK  status: ('A' for Active; 'I' for Inactive)
REMARK    1  A    between atoms: C1_1  and  C2_2
REMARK    2  A    between atoms: C1_1  and  C19_31
REMARK    3  A    between atoms: C2_2  and  C3_3
REMARK    4  A    between atoms: C3_3  and  C4_4
REMARK    5  A    between atoms: C4_4  and  C5_5
REMARK    6  A    between atoms: C5_5  and  C6_7
REMARK    7  A    between atoms: C6_7  and  C7_8
REMARK    8  A    between atoms: C7_8  and  C8_9
REMARK    9  A    between atoms: C8_9  and  C9_10
REMARK   10  A    between atoms: C9_10  and  C10_11
REMARK   11  A    between atoms: C10_11  and  C11_12
REMARK   12  A    between atoms: C11_12  and  C12_13
REMARK   13  A    between atoms: C12_13  and  O2_14
REMARK   14  A    between atoms: O2_14  and  C13_15
REMARK   15  A    between atoms: C14_17  and  O7_30
REMARK   16  A    between atoms: C15_19  and  O6_29
REMARK   17  A    between atoms: C16_21  and  O5_28
REMARK   18  A    between atoms: C17_23  and  C18_26
REMARK   19  A    between atoms: C18_26  and  O4_27
REMARK   20  A    between atoms: C19_31  and  C20_32
REMARK   21  A    between atoms: C20_32  and  C21_33
REMARK   22  A    between atoms: C21_33  and  C22_34
REMARK                            x       y       z     vdW  Elec       q    Type
REMARK                         _______ _______ _______ _____ _____    ______ ____
ROOT
ATOM     17  C   UNL     1      45.000  17.668  19.847  0.00  0.00    +0.024 C 
ENDROOT
BRANCH  17  16
ATOM     16  C   UNL     1      46.502  17.877  20.053  0.00  0.00    +0.012 C 
BRANCH  16  15
ATOM     15  C   UNL     1      47.255  17.425  18.800  0.00  0.00    +0.009 C 
BRANCH  15  14
ATOM     14  C   UNL     1      48.228  18.524  18.367  0.00  0.00    +0.005 C 
BRANCH  14  13
ATOM     13  C   UNL     1      48.354  19.562  19.484  0.00  0.00    +0.022 C 
BRANCH  13  12
ATOM     12  C   UNL     1      49.174  20.753  18.984  0.00  0.00    +0.020 C 
BRANCH  12  11
ATOM     11  C   UNL     1      50.610  20.590  19.412  0.00  0.00    +0.352 C 
ATOM     35  O   UNL     1      50.871  20.012  20.440  0.00  0.00    -0.451 OA
BRANCH  11  10
ATOM     10  C   UNL     1      51.719  21.148  18.559  0.00  0.00    +0.021 C 
BRANCH  10   9
ATOM      9  C   UNL     1      51.297  21.121  17.090  0.00  0.00    +0.020 C 
BRANCH   9   8
ATOM      8  C   UNL     1      52.043  19.999  16.364  0.00  0.00    +0.001 C 
BRANCH   8   1
ATOM      1  C   UNL     1      51.108  18.801  16.181  0.00  0.00    +0.001 C 
BRANCH   1   2
ATOM      2  C   UNL     1      51.844  17.517  16.569  0.00  0.00    -0.012 C 
BRANCH   2   3
ATOM      3  C   UNL     1      51.599  17.217  18.049  0.00  0.00    +0.021 C 
BRANCH   3   4
ATOM      4  C   UNL     1      52.852  17.566  18.855  0.00  0.00    -0.076 C 
BRANCH   4   5
ATOM      5  C   UNL     1      53.413  16.314  19.480  0.00  0.00    +0.487 C 
ATOM      6  O   UNL     1      52.720  15.640  20.221  0.00  0.00    -0.710 OA
ATOM      7  O   UNL     1      54.561  15.978  19.244  0.00  0.00    -0.700 OA
ENDBRANCH   4   5
ENDBRANCH   3   4
ENDBRANCH   2   3
ENDBRANCH   1   2
ENDBRANCH   8   1
ENDBRANCH   9   8
ENDBRANCH  10   9
ENDBRANCH  11  10
ENDBRANCH  12  11
ENDBRANCH  13  12
ENDBRANCH  14  13
ENDBRANCH  15  14
ENDBRANCH  16  15
ENDBRANCH  17  16
BRANCH  17  18
ATOM     18  C   UNL     1      44.241  18.188  21.070  0.00  0.00    +0.178 C 
BRANCH  18  19
ATOM     19  O   UNL     1      42.879  18.431  20.716  0.00  0.00    -0.366 OA
BRANCH  19  20
ATOM     20  C   UNL     1      42.706  19.463  19.742  0.00  0.00    +0.286 C 
ATOM     21  C   UNL     1      41.212  19.702  19.509  0.00  0.00    +0.137 C 
ATOM     24  C   UNL     1      41.036  20.849  18.510  0.00  0.00    +0.164 C 
ATOM     27  C   UNL     1      41.746  22.094  19.048  0.00  0.00    +0.177 C 
ATOM     30  C   UNL     1      43.220  21.764  19.299  0.00  0.00    +0.190 C 
ATOM     34  O   UNL     1      43.312  20.669  20.213  0.00  0.00    -0.373 OA
BRANCH  21  22
ATOM     22  O   UNL     1      40.585  20.045  20.747  0.00  0.00    -0.540 OA
ATOM     23  H   UNL     1      39.634  19.867  20.769  0.00  0.00    +0.389 HD
ENDBRANCH  21  22
BRANCH  24  25
ATOM     25  O   UNL     1      39.644  21.126  18.341  0.00  0.00    -0.548 OA
ATOM     26  H   UNL     1      39.174  21.299  19.167  0.00  0.00    +0.386 HD
ENDBRANCH  24  25
BRANCH  27  28
ATOM     28  O   UNL     1      41.649  23.151  18.092  0.00  0.00    -0.557 OA
ATOM     29  H   UNL     1      41.507  22.848  17.184  0.00  0.00    +0.393 HD
ENDBRANCH  27  28
BRANCH  30  31
ATOM     31  C   UNL     1      43.923  22.985  19.893  0.00  0.00    +0.223 C 
BRANCH  31  32
ATOM     32  O   UNL     1      44.473  23.777  18.839  0.00  0.00    -0.568 OA
ATOM     33  H   UNL     1      45.415  23.973  18.943  0.00  0.00    +0.384 HD
ENDBRANCH  31  32
ENDBRANCH  30  31
ENDBRANCH  19  20
ENDBRANCH  18  19
ENDBRANCH  17  18
TORSDOF 22
ENDMDL
MODEL 3
REMARK VINA RESULT:      -5.5      1.470      4.696
REMARK  Name = ZINC95486239
REMARK  22 active torsions:
REMARK  status: ('A' for Active; 'I' for Inactive)
REMARK    1  A    between atoms: C1_1  and  C2_2
REMARK    2  A    between atoms: C1_1  and  C19_31
REMARK    3  A    between atoms: C2_2  and  C3_3
REMARK    4  A    between atoms: C3_3  and  C4_4
REMARK    5  A    between atoms: C4_4  and  C5_5
REMARK    6  A    between atoms: C5_5  and  C6_7
REMARK    7  A    between atoms: C6_7  and  C7_8
REMARK    8  A    between atoms: C7_8  and  C8_9
REMARK    9  A    between atoms: C8_9  and  C9_10
REMARK   10  A    between atoms: C9_10  and  C10_11
REMARK   11  A    between atoms: C10_11  and  C11_12
REMARK   12  A    between atoms: C11_12  and  C12_13
REMARK   13  A    between atoms: C12_13  and  O2_14
REMARK   14  A    between atoms: O2_14  and  C13_15
REMARK   15  A    between atoms: C14_17  and  O7_30
REMARK   16  A    between atoms: C15_19  and  O6_29
REMARK   17  A    between atoms: C16_21  and  O5_28
REMARK   18  A    between atoms: C17_23  and  C18_26
REMARK   19  A    between atoms: C18_26  and  O4_27
REMARK   20  A    between atoms: C19_31  and  C20_32
REMARK   21  A    between atoms: C20_32  and  C21_33
REMARK   22  A    between atoms: C21_33  and  C22_34
REMARK                            x       y       z     vdW  Elec       q    Type
REMARK                         _______ _______ _______ _____ _____    ______ ____
ROOT
ATOM     17  C   UNL     1      45.619  18.376  19.709  0.00  0.00    +0.024 C 
ENDROOT
BRANCH  17  16
ATOM     16  C   UNL     1      47.049  18.760  20.093  0.00  0.00    +0.012 C 
BRANCH  16  15
ATOM     15  C   UNL     1      47.509  19.938  19.231  0.00  0.00    +0.009 C 
BRANCH  15  14
ATOM     14  C   UNL     1      48.976  20.249  19.534  0.00  0.00    +0.005 C 
BRANCH  14  13
ATOM     13  C   UNL     1      49.544  21.149  18.435  0.00  0.00    +0.022 C 
BRANCH  13  12
ATOM     12  C   UNL     1      51.066  21.004  18.391  0.00  0.00    +0.020 C 
BRANCH  12  11
ATOM     11  C   UNL     1      51.500  20.675  16.986  0.00  0.00    +0.352 C 
ATOM     35  O   UNL     1      51.464  21.526  16.129  0.00  0.00    -0.451 OA
BRANCH  11  10
ATOM     10  C   UNL     1      51.979  19.287  16.649  0.00  0.00    +0.021 C 
BRANCH  10   9
ATOM      9  C   UNL     1      50.779  18.346  16.535  0.00  0.00    +0.020 C 
BRANCH   9   8
ATOM      8  C   UNL     1      50.812  17.334  17.681  0.00  0.00    +0.001 C 
BRANCH   8   1
ATOM      1  C   UNL     1      49.392  16.839  17.966  0.00  0.00    +0.001 C 
BRANCH   1   2
ATOM      2  C   UNL     1      48.445  17.355  16.880  0.00  0.00    -0.012 C 
BRANCH   2   3
ATOM      3  C   UNL     1      47.104  16.628  16.987  0.00  0.00    +0.021 C 
BRANCH   3   4
ATOM      4  C   UNL     1      47.331  15.119  16.873  0.00  0.00    -0.076 C 
BRANCH   4   5
ATOM      5  C   UNL     1      46.632  14.418  18.010  0.00  0.00    +0.487 C 
ATOM      6  O   UNL     1      45.840  15.028  18.706  0.00  0.00    -0.710 OA
ATOM      7  O   UNL     1      46.860  13.241  18.232  0.00  0.00    -0.700 OA
ENDBRANCH   4   5
ENDBRANCH   3   4
ENDBRANCH   2   3
ENDBRANCH   1   2
ENDBRANCH   8   1
ENDBRANCH   9   8
ENDBRANCH  10   9
ENDBRANCH  11  10
ENDBRANCH  12  11
ENDBRANCH  13  12
ENDBRANCH  14  13
ENDBRANCH  15  14
ENDBRANCH  16  15
ENDBRANCH  17  16
BRANCH  17  18
ATOM     18  C   UNL     1      44.720  18.455  20.945  0.00  0.00    +0.178 C 
BRANCH  18  19
ATOM     19  O   UNL     1      43.354  18.536  20.535  0.00  0.00    -0.366 OA
BRANCH  19  20
ATOM     20  C   UNL     1      43.081  19.609  19.631  0.00  0.00    +0.286 C 
ATOM     21  C   UNL     1      41.567  19.751  19.449  0.00  0.00    +0.137 C 
ATOM     24  C   UNL     1      41.281  20.940  18.527  0.00  0.00    +0.164 C 
ATOM     27  C   UNL     1      41.915  22.199  19.124  0.00  0.00    +0.177 C 
ATOM     30  C   UNL     1      43.415  21.963  19.319  0.00  0.00    +0.190 C 
ATOM     34  O   UNL     1      43.612  20.826  20.161  0.00  0.00    -0.373 OA
BRANCH  21  22
ATOM     22  O   UNL     1      40.953  19.972  20.720  0.00  0.00    -0.540 OA
ATOM     23  H   UNL     1      41.090  19.254  21.354  0.00  0.00    +0.389 HD
ENDBRANCH  21  22
BRANCH  24  25
ATOM     25  O   UNL     1      39.868  21.123  18.409  0.00  0.00    -0.548 OA
ATOM     26  H   UNL     1      39.420  20.418  17.922  0.00  0.00    +0.386 HD
ENDBRANCH  24  25
BRANCH  27  28
ATOM     28  O   UNL     1      41.715  23.302  18.238  0.00  0.00    -0.557 OA
ATOM     29  H   UNL     1      41.242  24.046  18.636  0.00  0.00    +0.393 HD
ENDBRANCH  27  28
BRANCH  30  31
ATOM     31  C   UNL     1      44.045  23.196  19.971  0.00  0.00    +0.223 C 
BRANCH  31  32
ATOM     32  O   UNL     1      43.963  23.077  21.392  0.00  0.00    -0.568 OA
ATOM     33  H   UNL     1      43.101  23.319  21.758  0.00  0.00    +0.384 HD
ENDBRANCH  31  32
ENDBRANCH  30  31
ENDBRANCH  19  20
ENDBRANCH  18  19
ENDBRANCH  17  18
TORSDOF 22
ENDMDL
MODEL 4
REMARK VINA RESULT:      -5.4      1.285      2.500
REMARK  Name = ZINC95486239
REMARK  22 active torsions:
REMARK  status: ('A' for Active; 'I' for Inactive)
REMARK    1  A    between atoms: C1_1  and  C2_2
REMARK    2  A    between atoms: C1_1  and  C19_31
REMARK    3  A    between atoms: C2_2  and  C3_3
REMARK    4  A    between atoms: C3_3  and  C4_4
REMARK    5  A    between atoms: C4_4  and  C5_5
REMARK    6  A    between atoms: C5_5  and  C6_7
REMARK    7  A    between atoms: C6_7  and  C7_8
REMARK    8  A    between atoms: C7_8  and  C8_9
REMARK    9  A    between atoms: C8_9  and  C9_10
REMARK   10  A    between atoms: C9_10  and  C10_11
REMARK   11  A    between atoms: C10_11  and  C11_12
REMARK   12  A    between atoms: C11_12  and  C12_13
REMARK   13  A    between atoms: C12_13  and  O2_14
REMARK   14  A    between atoms: O2_14  and  C13_15
REMARK   15  A    between atoms: C14_17  and  O7_30
REMARK   16  A    between atoms: C15_19  and  O6_29
REMARK   17  A    between atoms: C16_21  and  O5_28
REMARK   18  A    between atoms: C17_23  and  C18_26
REMARK   19  A    between atoms: C18_26  and  O4_27
REMARK   20  A    between atoms: C19_31  and  C20_32
REMARK   21  A    between atoms: C20_32  and  C21_33
REMARK   22  A    between atoms: C21_33  and  C22_34
REMARK                            x       y       z     vdW  Elec       q    Type
REMARK                         _______ _______ _______ _____ _____    ______ ____
ROOT
ATOM     17  C   UNL     1      44.961  17.263  21.637  0.00  0.00    +0.024 C 
ENDROOT
BRANCH  17  16
ATOM     16  C   UNL     1      44.466  15.817  21.718  0.00  0.00    +0.012 C 
BRANCH  16  15
ATOM     15  C   UNL     1      45.328  14.932  20.816  0.00  0.00    +0.009 C 
BRANCH  15  14
ATOM     14  C   UNL     1      45.537  15.627  19.469  0.00  0.00    +0.005 C 
BRANCH  14  13
ATOM     13  C   UNL     1      47.019  15.574  19.092  0.00  0.00    +0.022 C 
BRANCH  13  12
ATOM     12  C   UNL     1      47.245  16.357  17.797  0.00  0.00    +0.020 C 
BRANCH  12  11
ATOM     11  C   UNL     1      47.154  17.835  18.080  0.00  0.00    +0.352 C 
ATOM     35  O   UNL     1      46.318  18.505  17.523  0.00  0.00    -0.451 OA
BRANCH  11  10
ATOM     10  C   UNL     1      48.106  18.475  19.057  0.00  0.00    +0.021 C 
BRANCH  10   9
ATOM      9  C   UNL     1      47.582  19.857  19.449  0.00  0.00    +0.020 C 
BRANCH   9   8
ATOM      8  C   UNL     1      48.757  20.824  19.606  0.00  0.00    +0.001 C 
BRANCH   8   1
ATOM      1  C   UNL     1      50.027  20.178  19.048  0.00  0.00    +0.001 C 
BRANCH   1   2
ATOM      2  C   UNL     1      50.896  21.251  18.388  0.00  0.00    -0.012 C 
BRANCH   2   3
ATOM      3  C   UNL     1      51.456  20.714  17.070  0.00  0.00    +0.021 C 
BRANCH   3   4
ATOM      4  C   UNL     1      52.100  19.347  17.308  0.00  0.00    -0.076 C 
BRANCH   4   5
ATOM      5  C   UNL     1      51.540  18.348  16.328  0.00  0.00    +0.487 C 
ATOM      6  O   UNL     1      50.484  17.789  16.564  0.00  0.00    -0.710 OA
ATOM      7  O   UNL     1      52.146  18.100  15.299  0.00  0.00    -0.700 OA
ENDBRANCH   4   5
ENDBRANCH   3   4
ENDBRANCH   2   3
ENDBRANCH   1   2
ENDBRANCH   8   1
ENDBRANCH   9   8
ENDBRANCH  10   9
ENDBRANCH  11  10
ENDBRANCH  12  11
ENDBRANCH  13  12
ENDBRANCH  14  13
ENDBRANCH  15  14
ENDBRANCH  16  15
ENDBRANCH  17  16
BRANCH  17  18
ATOM     18  C   UNL     1      43.828  18.212  22.033  0.00  0.00    +0.178 C 
BRANCH  18  19
ATOM     19  O   UNL     1      42.893  18.312  20.958  0.00  0.00    -0.366 OA
BRANCH  19  20
ATOM     20  C   UNL     1      42.511  19.653  20.642  0.00  0.00    +0.286 C 
ATOM     21  C   UNL     1      43.693  20.384  20.001  0.00  0.00    +0.137 C 
ATOM     24  C   UNL     1      43.257  21.800  19.612  0.00  0.00    +0.164 C 
ATOM     27  C   UNL     1      42.051  21.711  18.672  0.00  0.00    +0.177 C 
ATOM     30  C   UNL     1      40.932  20.928  19.365  0.00  0.00    +0.190 C 
ATOM     34  O   UNL     1      41.412  19.633  19.728  0.00  0.00    -0.373 OA
BRANCH  21  22
ATOM     22  O   UNL     1      44.117  19.675  18.835  0.00  0.00    -0.540 OA
ATOM     23  H   UNL     1      44.930  20.019  18.439  0.00  0.00    +0.389 HD
ENDBRANCH  21  22
BRANCH  24  25
ATOM     25  O   UNL     1      44.334  22.466  18.948  0.00  0.00    -0.548 OA
ATOM     26  H   UNL     1      44.089  22.866  18.103  0.00  0.00    +0.386 HD
ENDBRANCH  24  25
BRANCH  27  28
ATOM     28  O   UNL     1      41.591  23.026  18.358  0.00  0.00    -0.557 OA
ATOM     29  H   UNL     1      42.084  23.455  17.645  0.00  0.00    +0.393 HD
ENDBRANCH  27  28
BRANCH  30  31
ATOM     31  C   UNL     1      39.745  20.783  18.411  0.00  0.00    +0.223 C 
BRANCH  31  32
ATOM     32  O   UNL     1      38.903  21.933  18.521  0.00  0.00    -0.568 OA
ATOM     33  H   UNL     1      38.890  22.489  17.729  0.00  0.00    +0.384 HD
ENDBRANCH  31  32
ENDBRANCH  30  31
ENDBRANCH  19  20
ENDBRANCH  18  19
ENDBRANCH  17  18
TORSDOF 22
ENDMDL
MODEL 5
REMARK VINA RESULT:      -5.3      2.097      7.863
REMARK  Name = ZINC95486239
REMARK  22 active torsions:
REMARK  status: ('A' for Active; 'I' for Inactive)
REMARK    1  A    between atoms: C1_1  and  C2_2
REMARK    2  A    between atoms: C1_1  and  C19_31
REMARK    3  A    between atoms: C2_2  and  C3_3
REMARK    4  A    between atoms: C3_3  and  C4_4
REMARK    5  A    between atoms: C4_4  and  C5_5
REMARK    6  A    between atoms: C5_5  and  C6_7
REMARK    7  A    between atoms: C6_7  and  C7_8
REMARK    8  A    between atoms: C7_8  and  C8_9
REMARK    9  A    between atoms: C8_9  and  C9_10
REMARK   10  A    between atoms: C9_10  and  C10_11
REMARK   11  A    between atoms: C10_11  and  C11_12
REMARK   12  A    between atoms: C11_12  and  C12_13
REMARK   13  A    between atoms: C12_13  and  O2_14
REMARK   14  A    between atoms: O2_14  and  C13_15
REMARK   15  A    between atoms: C14_17  and  O7_30
REMARK   16  A    between atoms: C15_19  and  O6_29
REMARK   17  A    between atoms: C16_21  and  O5_28
REMARK   18  A    between atoms: C17_23  and  C18_26
REMARK   19  A    between atoms: C18_26  and  O4_27
REMARK   20  A    between atoms: C19_31  and  C20_32
REMARK   21  A    between atoms: C20_32  and  C21_33
REMARK   22  A    between atoms: C21_33  and  C22_34
REMARK                            x       y       z     vdW  Elec       q    Type
REMARK                         _______ _______ _______ _____ _____    ______ ____
ROOT
ATOM     17  C   UNL     1      47.534  20.163  19.331  0.00  0.00    +0.024 C 
ENDROOT
BRANCH  17  16
ATOM     16  C   UNL     1      46.455  21.006  18.648  0.00  0.00    +0.012 C 
BRANCH  16  15
ATOM     15  C   UNL     1      45.090  20.344  18.847  0.00  0.00    +0.009 C 
BRANCH  15  14
ATOM     14  C   UNL     1      44.148  21.320  19.555  0.00  0.00    +0.005 C 
BRANCH  14  13
ATOM     13  C   UNL     1      42.699  20.885  19.328  0.00  0.00    +0.022 C 
BRANCH  13  12
ATOM     12  C   UNL     1      42.589  19.368  19.494  0.00  0.00    +0.020 C 
BRANCH  12  11
ATOM     11  C   UNL     1      42.112  19.047  20.887  0.00  0.00    +0.352 C 
ATOM     35  O   UNL     1      40.936  19.112  21.152  0.00  0.00    -0.451 OA
BRANCH  11  10
ATOM     10  C   UNL     1      43.102  18.645  21.950  0.00  0.00    +0.021 C 
BRANCH  10   9
ATOM      9  C   UNL     1      43.072  17.126  22.127  0.00  0.00    +0.020 C 
BRANCH   9   8
ATOM      8  C   UNL     1      44.500  16.578  22.081  0.00  0.00    +0.001 C 
BRANCH   8   1
ATOM      1  C   UNL     1      45.246  17.199  20.898  0.00  0.00    +0.001 C 
BRANCH   1   2
ATOM      2  C   UNL     1      45.275  16.204  19.736  0.00  0.00    -0.012 C 
BRANCH   2   3
ATOM      3  C   UNL     1      45.955  16.851  18.528  0.00  0.00    +0.021 C 
BRANCH   3   4
ATOM      4  C   UNL     1      46.480  15.761  17.593  0.00  0.00    -0.076 C 
BRANCH   4   5
ATOM      5  C   UNL     1      47.983  15.694  17.690  0.00  0.00    +0.487 C 
ATOM      6  O   UNL     1      48.564  16.317  18.560  0.00  0.00    -0.710 OA
ATOM      7  O   UNL     1      48.615  15.018  16.897  0.00  0.00    -0.700 OA
ENDBRANCH   4   5
ENDBRANCH   3   4
ENDBRANCH   2   3
ENDBRANCH   1   2
ENDBRANCH   8   1
ENDBRANCH   9   8
ENDBRANCH  10   9
ENDBRANCH  11  10
ENDBRANCH  12  11
ENDBRANCH  13  12
ENDBRANCH  14  13
ENDBRANCH  15  14
ENDBRANCH  16  15
ENDBRANCH  17  16
BRANCH  17  18
ATOM     18  C   UNL     1      48.430  21.071  20.176  0.00  0.00    +0.178 C 
BRANCH  18  19
ATOM     19  O   UNL     1      49.792  20.666  20.030  0.00  0.00    -0.366 OA
BRANCH  19  20
ATOM     20  C   UNL     1      50.110  20.153  18.734  0.00  0.00    +0.286 C 
ATOM     21  C   UNL     1      50.983  21.163  17.985  0.00  0.00    +0.137 C 
ATOM     24  C   UNL     1      51.369  20.580  16.622  0.00  0.00    +0.164 C 
ATOM     27  C   UNL     1      52.081  19.242  16.834  0.00  0.00    +0.177 C 
ATOM     30  C   UNL     1      51.166  18.305  17.628  0.00  0.00    +0.190 C 
ATOM     34  O   UNL     1      50.820  18.920  18.870  0.00  0.00    -0.373 OA
BRANCH  21  22
ATOM     22  O   UNL     1      52.164  21.428  18.744  0.00  0.00    -0.540 OA
ATOM     23  H   UNL     1      52.946  21.611  18.204  0.00  0.00    +0.389 HD
ENDBRANCH  21  22
BRANCH  24  25
ATOM     25  O   UNL     1      52.242  21.487  15.945  0.00  0.00    -0.548 OA
ATOM     26  H   UNL     1      51.890  22.383  15.860  0.00  0.00    +0.386 HD
ENDBRANCH  24  25
BRANCH  27  28
ATOM     28  O   UNL     1      52.383  18.655  15.567  0.00  0.00    -0.557 OA
ATOM     29  H   UNL     1      53.221  18.951  15.186  0.00  0.00    +0.393 HD
ENDBRANCH  27  28
BRANCH  30  31
ATOM     31  C   UNL     1      51.893  16.987  17.895  0.00  0.00    +0.223 C 
BRANCH  31  32
ATOM     32  O   UNL     1      51.421  15.990  16.987  0.00  0.00    -0.568 OA
ATOM     33  H   UNL     1      51.768  16.081  16.088  0.00  0.00    +0.384 HD
ENDBRANCH  31  32
ENDBRANCH  30  31
ENDBRANCH  19  20
ENDBRANCH  18  19
ENDBRANCH  17  18
TORSDOF 22
ENDMDL
MODEL 6
REMARK VINA RESULT:      -5.3      1.990      3.192
REMARK  Name = ZINC95486239
REMARK  22 active torsions:
REMARK  status: ('A' for Active; 'I' for Inactive)
REMARK    1  A    between atoms: C1_1  and  C2_2
REMARK    2  A    between atoms: C1_1  and  C19_31
REMARK    3  A    between atoms: C2_2  and  C3_3
REMARK    4  A    between atoms: C3_3  and  C4_4
REMARK    5  A    between atoms: C4_4  and  C5_5
REMARK    6  A    between atoms: C5_5  and  C6_7
REMARK    7  A    between atoms: C6_7  and  C7_8
REMARK    8  A    between atoms: C7_8  and  C8_9
REMARK    9  A    between atoms: C8_9  and  C9_10
REMARK   10  A    between atoms: C9_10  and  C10_11
REMARK   11  A    between atoms: C10_11  and  C11_12
REMARK   12  A    between atoms: C11_12  and  C12_13
REMARK   13  A    between atoms: C12_13  and  O2_14
REMARK   14  A    between atoms: O2_14  and  C13_15
REMARK   15  A    between atoms: C14_17  and  O7_30
REMARK   16  A    between atoms: C15_19  and  O6_29
REMARK   17  A    between atoms: C16_21  and  O5_28
REMARK   18  A    between atoms: C17_23  and  C18_26
REMARK   19  A    between atoms: C18_26  and  O4_27
REMARK   20  A    between atoms: C19_31  and  C20_32
REMARK   21  A    between atoms: C20_32  and  C21_33
REMARK   22  A    between atoms: C21_33  and  C22_34
REMARK                            x       y       z     vdW  Elec       q    Type
REMARK                         _______ _______ _______ _____ _____    ______ ____
ROOT
ATOM     17  C   UNL     1      45.094  16.765  20.369  0.00  0.00    +0.024 C 
ENDROOT
BRANCH  17  16
ATOM     16  C   UNL     1      45.494  15.590  21.263  0.00  0.00    +0.012 C 
BRANCH  16  15
ATOM     15  C   UNL     1      46.142  14.498  20.410  0.00  0.00    +0.009 C 
BRANCH  15  14
ATOM     14  C   UNL     1      45.693  14.654  18.955  0.00  0.00    +0.005 C 
BRANCH  14  13
ATOM     13  C   UNL     1      46.911  14.563  18.034  0.00  0.00    +0.022 C 
BRANCH  13  12
ATOM     12  C   UNL     1      46.809  15.634  16.946  0.00  0.00    +0.020 C 
BRANCH  12  11
ATOM     11  C   UNL     1      47.221  16.968  17.512  0.00  0.00    +0.352 C 
ATOM     35  O   UNL     1      46.529  17.941  17.327  0.00  0.00    -0.451 OA
BRANCH  11  10
ATOM     10  C   UNL     1      48.493  17.090  18.309  0.00  0.00    +0.021 C 
BRANCH  10   9
ATOM      9  C   UNL     1      49.693  17.076  17.361  0.00  0.00    +0.020 C 
BRANCH   9   8
ATOM      8  C   UNL     1      50.237  18.497  17.205  0.00  0.00    +0.001 C 
BRANCH   8   1
ATOM      1  C   UNL     1      51.455  18.680  18.114  0.00  0.00    +0.001 C 
BRANCH   1   2
ATOM      2  C   UNL     1      51.190  19.824  19.095  0.00  0.00    -0.012 C 
BRANCH   2   3
ATOM      3  C   UNL     1      49.940  20.591  18.658  0.00  0.00    +0.021 C 
BRANCH   3   4
ATOM      4  C   UNL     1      49.081  20.906  19.884  0.00  0.00    -0.076 C 
BRANCH   4   5
ATOM      5  C   UNL     1      47.671  20.428  19.648  0.00  0.00    +0.487 C 
ATOM      6  O   UNL     1      47.178  19.598  20.391  0.00  0.00    -0.710 OA
ATOM      7  O   UNL     1      47.026  20.871  18.713  0.00  0.00    -0.700 OA
ENDBRANCH   4   5
ENDBRANCH   3   4
ENDBRANCH   2   3
ENDBRANCH   1   2
ENDBRANCH   8   1
ENDBRANCH   9   8
ENDBRANCH  10   9
ENDBRANCH  11  10
ENDBRANCH  12  11
ENDBRANCH  13  12
ENDBRANCH  14  13
ENDBRANCH  15  14
ENDBRANCH  16  15
ENDBRANCH  17  16
BRANCH  17  18
ATOM     18  C   UNL     1      44.126  17.676  21.127  0.00  0.00    +0.178 C 
BRANCH  18  19
ATOM     19  O   UNL     1      42.981  17.935  20.314  0.00  0.00    -0.366 OA
BRANCH  19  20
ATOM     20  C   UNL     1      42.619  19.316  20.243  0.00  0.00    +0.286 C 
ATOM     21  C   UNL     1      43.809  20.131  19.730  0.00  0.00    +0.137 C 
ATOM     24  C   UNL     1      43.393  21.600  19.600  0.00  0.00    +0.164 C 
ATOM     27  C   UNL     1      42.180  21.696  18.671  0.00  0.00    +0.177 C 
ATOM     30  C   UNL     1      41.052  20.820  19.225  0.00  0.00    +0.190 C 
ATOM     34  O   UNL     1      41.514  19.474  19.350  0.00  0.00    -0.373 OA
BRANCH  21  22
ATOM     22  O   UNL     1      44.213  19.633  18.453  0.00  0.00    -0.540 OA
ATOM     23  H   UNL     1      45.093  19.232  18.448  0.00  0.00    +0.389 HD
ENDBRANCH  21  22
BRANCH  24  25
ATOM     25  O   UNL     1      44.477  22.356  19.055  0.00  0.00    -0.548 OA
ATOM     26  H   UNL     1      44.284  22.758  18.197  0.00  0.00    +0.386 HD
ENDBRANCH  24  25
BRANCH  27  28
ATOM     28  O   UNL     1      41.740  23.053  18.598  0.00  0.00    -0.557 OA
ATOM     29  H   UNL     1      41.980  23.501  17.775  0.00  0.00    +0.393 HD
ENDBRANCH  27  28
BRANCH  30  31
ATOM     31  C   UNL     1      39.857  20.864  18.271  0.00  0.00    +0.223 C 
BRANCH  31  32
ATOM     32  O   UNL     1      39.028  21.981  18.599  0.00  0.00    -0.568 OA
ATOM     33  H   UNL     1      38.434  21.824  19.346  0.00  0.00    +0.384 HD
ENDBRANCH  31  32
ENDBRANCH  30  31
ENDBRANCH  19  20
ENDBRANCH  18  19
ENDBRANCH  17  18
TORSDOF 22
ENDMDL
MODEL 7
REMARK VINA RESULT:      -5.3      1.808      8.481
REMARK  Name = ZINC95486239
REMARK  22 active torsions:
REMARK  status: ('A' for Active; 'I' for Inactive)
REMARK    1  A    between atoms: C1_1  and  C2_2
REMARK    2  A    between atoms: C1_1  and  C19_31
REMARK    3  A    between atoms: C2_2  and  C3_3
REMARK    4  A    between atoms: C3_3  and  C4_4
REMARK    5  A    between atoms: C4_4  and  C5_5
REMARK    6  A    between atoms: C5_5  and  C6_7
REMARK    7  A    between atoms: C6_7  and  C7_8
REMARK    8  A    between atoms: C7_8  and  C8_9
REMARK    9  A    between atoms: C8_9  and  C9_10
REMARK   10  A    between atoms: C9_10  and  C10_11
REMARK   11  A    between atoms: C10_11  and  C11_12
REMARK   12  A    between atoms: C11_12  and  C12_13
REMARK   13  A    between atoms: C12_13  and  O2_14
REMARK   14  A    between atoms: O2_14  and  C13_15
REMARK   15  A    between atoms: C14_17  and  O7_30
REMARK   16  A    between atoms: C15_19  and  O6_29
REMARK   17  A    between atoms: C16_21  and  O5_28
REMARK   18  A    between atoms: C17_23  and  C18_26
REMARK   19  A    between atoms: C18_26  and  O4_27
REMARK   20  A    between atoms: C19_31  and  C20_32
REMARK   21  A    between atoms: C20_32  and  C21_33
REMARK   22  A    between atoms: C21_33  and  C22_34
REMARK                            x       y       z     vdW  Elec       q    Type
REMARK                         _______ _______ _______ _____ _____    ______ ____
ROOT
ATOM     17  C   UNL     1      47.950  20.773  19.232  0.00  0.00    +0.024 C 
ENDROOT
BRANCH  17  16
ATOM     16  C   UNL     1      46.483  20.935  19.636  0.00  0.00    +0.012 C 
BRANCH  16  15
ATOM     15  C   UNL     1      45.813  19.560  19.683  0.00  0.00    +0.009 C 
BRANCH  15  14
ATOM     14  C   UNL     1      45.534  19.080  18.257  0.00  0.00    +0.005 C 
BRANCH  14  13
ATOM     13  C   UNL     1      45.897  17.598  18.138  0.00  0.00    +0.022 C 
BRANCH  13  12
ATOM     12  C   UNL     1      46.604  17.142  19.417  0.00  0.00    +0.020 C 
BRANCH  12  11
ATOM     11  C   UNL     1      46.226  15.714  19.719  0.00  0.00    +0.352 C 
ATOM     35  O   UNL     1      46.894  14.808  19.282  0.00  0.00    -0.451 OA
BRANCH  11  10
ATOM     10  C   UNL     1      45.015  15.418  20.565  0.00  0.00    +0.021 C 
BRANCH  10   9
ATOM      9  C   UNL     1      45.031  16.306  21.809  0.00  0.00    +0.020 C 
BRANCH   9   8
ATOM      8  C   UNL     1      43.613  16.795  22.107  0.00  0.00    +0.001 C 
BRANCH   8   1
ATOM      1  C   UNL     1      43.306  18.025  21.250  0.00  0.00    +0.001 C 
BRANCH   1   2
ATOM      2  C   UNL     1      42.113  18.776  21.846  0.00  0.00    -0.012 C 
BRANCH   2   3
ATOM      3  C   UNL     1      41.133  19.143  20.729  0.00  0.00    +0.021 C 
BRANCH   3   4
ATOM      4  C   UNL     1      41.915  19.569  19.485  0.00  0.00    -0.076 C 
BRANCH   4   5
ATOM      5  C   UNL     1      41.146  20.637  18.749  0.00  0.00    +0.487 C 
ATOM      6  O   UNL     1      41.386  21.813  18.958  0.00  0.00    -0.710 OA
ATOM      7  O   UNL     1      40.283  20.323  17.947  0.00  0.00    -0.700 OA
ENDBRANCH   4   5
ENDBRANCH   3   4
ENDBRANCH   2   3
ENDBRANCH   1   2
ENDBRANCH   8   1
ENDBRANCH   9   8
ENDBRANCH  10   9
ENDBRANCH  11  10
ENDBRANCH  12  11
ENDBRANCH  13  12
ENDBRANCH  14  13
ENDBRANCH  15  14
ENDBRANCH  16  15
ENDBRANCH  17  16
BRANCH  17  18
ATOM     18  C   UNL     1      48.830  20.813  20.484  0.00  0.00    +0.178 C 
BRANCH  18  19
ATOM     19  O   UNL     1      50.203  20.708  20.103  0.00  0.00    -0.366 OA
BRANCH  19  20
ATOM     20  C   UNL     1      50.404  20.192  18.786  0.00  0.00    +0.286 C 
ATOM     21  C   UNL     1      51.287  21.155  17.988  0.00  0.00    +0.137 C 
ATOM     24  C   UNL     1      51.547  20.565  16.599  0.00  0.00    +0.164 C 
ATOM     27  C   UNL     1      52.187  19.183  16.754  0.00  0.00    +0.177 C 
ATOM     30  C   UNL     1      51.269  18.296  17.600  0.00  0.00    +0.190 C 
ATOM     34  O   UNL     1      51.044  18.916  18.866  0.00  0.00    -0.373 OA
BRANCH  21  22
ATOM     22  O   UNL     1      52.530  21.338  18.670  0.00  0.00    -0.540 OA
ATOM     23  H   UNL     1      52.441  21.730  19.550  0.00  0.00    +0.389 HD
ENDBRANCH  21  22
BRANCH  24  25
ATOM     25  O   UNL     1      52.429  21.424  15.872  0.00  0.00    -0.548 OA
ATOM     26  H   UNL     1      53.364  21.291  16.077  0.00  0.00    +0.386 HD
ENDBRANCH  24  25
BRANCH  27  28
ATOM     28  O   UNL     1      52.369  18.593  15.466  0.00  0.00    -0.557 OA
ATOM     29  H   UNL     1      51.567  18.197  15.098  0.00  0.00    +0.393 HD
ENDBRANCH  27  28
BRANCH  30  31
ATOM     31  C   UNL     1      51.930  16.932  17.809  0.00  0.00    +0.223 C 
BRANCH  31  32
ATOM     32  O   UNL     1      51.597  16.070  16.720  0.00  0.00    -0.568 OA
ATOM     33  H   UNL     1      50.910  16.420  16.135  0.00  0.00    +0.384 HD
ENDBRANCH  31  32
ENDBRANCH  30  31
ENDBRANCH  19  20
ENDBRANCH  18  19
ENDBRANCH  17  18
TORSDOF 22
ENDMDL
MODEL 8
REMARK VINA RESULT:      -5.3      1.768      5.555
REMARK  Name = ZINC95486239
REMARK  22 active torsions:
REMARK  status: ('A' for Active; 'I' for Inactive)
REMARK    1  A    between atoms: C1_1  and  C2_2
REMARK    2  A    between atoms: C1_1  and  C19_31
REMARK    3  A    between atoms: C2_2  and  C3_3
REMARK    4  A    between atoms: C3_3  and  C4_4
REMARK    5  A    between atoms: C4_4  and  C5_5
REMARK    6  A    between atoms: C5_5  and  C6_7
REMARK    7  A    between atoms: C6_7  and  C7_8
REMARK    8  A    between atoms: C7_8  and  C8_9
REMARK    9  A    between atoms: C8_9  and  C9_10
REMARK   10  A    between atoms: C9_10  and  C10_11
REMARK   11  A    between atoms: C10_11  and  C11_12
REMARK   12  A    between atoms: C11_12  and  C12_13
REMARK   13  A    between atoms: C12_13  and  O2_14
REMARK   14  A    between atoms: O2_14  and  C13_15
REMARK   15  A    between atoms: C14_17  and  O7_30
REMARK   16  A    between atoms: C15_19  and  O6_29
REMARK   17  A    between atoms: C16_21  and  O5_28
REMARK   18  A    between atoms: C17_23  and  C18_26
REMARK   19  A    between atoms: C18_26  and  O4_27
REMARK   20  A    between atoms: C19_31  and  C20_32
REMARK   21  A    between atoms: C20_32  and  C21_33
REMARK   22  A    between atoms: C21_33  and  C22_34
REMARK                            x       y       z     vdW  Elec       q    Type
REMARK                         _______ _______ _______ _____ _____    ______ ____
ROOT
ATOM     17  C   UNL     1      48.279  19.814  20.913  0.00  0.00    +0.024 C 
ENDROOT
BRANCH  17  16
ATOM     16  C   UNL     1      48.095  19.985  19.404  0.00  0.00    +0.012 C 
BRANCH  16  15
ATOM     15  C   UNL     1      49.219  20.862  18.849  0.00  0.00    +0.009 C 
BRANCH  15  14
ATOM     14  C   UNL     1      50.508  20.592  19.627  0.00  0.00    +0.005 C 
BRANCH  14  13
ATOM     13  C   UNL     1      51.671  21.325  18.957  0.00  0.00    +0.022 C 
BRANCH  13  12
ATOM     12  C   UNL     1      52.524  20.323  18.176  0.00  0.00    +0.020 C 
BRANCH  12  11
ATOM     11  C   UNL     1      52.056  20.272  16.745  0.00  0.00    +0.352 C 
ATOM     35  O   UNL     1      51.715  21.286  16.185  0.00  0.00    -0.451 OA
BRANCH  11  10
ATOM     10  C   UNL     1      52.015  18.956  16.012  0.00  0.00    +0.021 C 
BRANCH  10   9
ATOM      9  C   UNL     1      51.564  17.852  16.969  0.00  0.00    +0.020 C 
BRANCH   9   8
ATOM      8  C   UNL     1      50.035  17.813  17.021  0.00  0.00    +0.001 C 
BRANCH   8   1
ATOM      1  C   UNL     1      49.586  16.746  18.020  0.00  0.00    +0.001 C 
BRANCH   1   2
ATOM      2  C   UNL     1      48.462  15.911  17.402  0.00  0.00    -0.012 C 
BRANCH   2   3
ATOM      3  C   UNL     1      47.641  15.257  18.517  0.00  0.00    +0.021 C 
BRANCH   3   4
ATOM      4  C   UNL     1      46.169  15.639  18.357  0.00  0.00    -0.076 C 
BRANCH   4   5
ATOM      5  C   UNL     1      45.933  16.998  18.964  0.00  0.00    +0.487 C 
ATOM      6  O   UNL     1      46.124  17.175  20.155  0.00  0.00    -0.710 OA
ATOM      7  O   UNL     1      45.550  17.920  18.264  0.00  0.00    -0.700 OA
ENDBRANCH   4   5
ENDBRANCH   3   4
ENDBRANCH   2   3
ENDBRANCH   1   2
ENDBRANCH   8   1
ENDBRANCH   9   8
ENDBRANCH  10   9
ENDBRANCH  11  10
ENDBRANCH  12  11
ENDBRANCH  13  12
ENDBRANCH  14  13
ENDBRANCH  15  14
ENDBRANCH  16  15
ENDBRANCH  17  16
BRANCH  17  18
ATOM     18  C   UNL     1      47.093  20.445  21.645  0.00  0.00    +0.178 C 
BRANCH  18  19
ATOM     19  O   UNL     1      46.598  21.549  20.886  0.00  0.00    -0.366 OA
BRANCH  19  20
ATOM     20  C   UNL     1      45.172  21.647  20.863  0.00  0.00    +0.286 C 
ATOM     21  C   UNL     1      44.751  22.761  19.901  0.00  0.00    +0.137 C 
ATOM     24  C   UNL     1      43.221  22.818  19.837  0.00  0.00    +0.164 C 
ATOM     27  C   UNL     1      42.688  21.448  19.409  0.00  0.00    +0.177 C 
ATOM     30  C   UNL     1      43.188  20.384  20.390  0.00  0.00    +0.190 C 
ATOM     34  O   UNL     1      44.616  20.405  20.425  0.00  0.00    -0.373 OA
BRANCH  21  22
ATOM     22  O   UNL     1      45.275  22.490  18.600  0.00  0.00    -0.540 OA
ATOM     23  H   UNL     1      44.994  23.123  17.923  0.00  0.00    +0.389 HD
ENDBRANCH  21  22
BRANCH  24  25
ATOM     25  O   UNL     1      42.820  23.808  18.887  0.00  0.00    -0.548 OA
ATOM     26  H   UNL     1      41.883  24.040  18.933  0.00  0.00    +0.386 HD
ENDBRANCH  24  25
BRANCH  27  28
ATOM     28  O   UNL     1      41.259  21.469  19.414  0.00  0.00    -0.557 OA
ATOM     29  H   UNL     1      40.855  20.656  19.749  0.00  0.00    +0.393 HD
ENDBRANCH  27  28
BRANCH  30  31
ATOM     31  C   UNL     1      42.708  19.005  19.935  0.00  0.00    +0.223 C 
BRANCH  31  32
ATOM     32  O   UNL     1      43.444  17.993  20.626  0.00  0.00    -0.568 OA
ATOM     33  H   UNL     1      43.464  17.140  20.171  0.00  0.00    +0.384 HD
ENDBRANCH  31  32
ENDBRANCH  30  31
ENDBRANCH  19  20
ENDBRANCH  18  19
ENDBRANCH  17  18
TORSDOF 22
ENDMDL
MODEL 9
REMARK VINA RESULT:      -5.2      1.956      8.521
REMARK  Name = ZINC95486239
REMARK  22 active torsions:
REMARK  status: ('A' for Active; 'I' for Inactive)
REMARK    1  A    between atoms: C1_1  and  C2_2
REMARK    2  A    between atoms: C1_1  and  C19_31
REMARK    3  A    between atoms: C2_2  and  C3_3
REMARK    4  A    between atoms: C3_3  and  C4_4
REMARK    5  A    between atoms: C4_4  and  C5_5
REMARK    6  A    between atoms: C5_5  and  C6_7
REMARK    7  A    between atoms: C6_7  and  C7_8
REMARK    8  A    between atoms: C7_8  and  C8_9
REMARK    9  A    between atoms: C8_9  and  C9_10
REMARK   10  A    between atoms: C9_10  and  C10_11
REMARK   11  A    between atoms: C10_11  and  C11_12
REMARK   12  A    between atoms: C11_12  and  C12_13
REMARK   13  A    between atoms: C12_13  and  O2_14
REMARK   14  A    between atoms: O2_14  and  C13_15
REMARK   15  A    between atoms: C14_17  and  O7_30
REMARK   16  A    between atoms: C15_19  and  O6_29
REMARK   17  A    between atoms: C16_21  and  O5_28
REMARK   18  A    between atoms: C17_23  and  C18_26
REMARK   19  A    between atoms: C18_26  and  O4_27
REMARK   20  A    between atoms: C19_31  and  C20_32
REMARK   21  A    between atoms: C20_32  and  C21_33
REMARK   22  A    between atoms: C21_33  and  C22_34
REMARK                            x       y       z     vdW  Elec       q    Type
REMARK                         _______ _______ _______ _____ _____    ______ ____
ROOT
ATOM     17  C   UNL     1      48.228  21.263  21.504  0.00  0.00    +0.024 C 
ENDROOT
BRANCH  17  16
ATOM     16  C   UNL     1      46.934  21.209  20.689  0.00  0.00    +0.012 C 
BRANCH  16  15
ATOM     15  C   UNL     1      46.158  22.514  20.877  0.00  0.00    +0.009 C 
BRANCH  15  14
ATOM     14  C   UNL     1      45.012  22.576  19.865  0.00  0.00    +0.005 C 
BRANCH  14  13
ATOM     13  C   UNL     1      43.882  21.649  20.318  0.00  0.00    +0.022 C 
BRANCH  13  12
ATOM     12  C   UNL     1      43.285  20.940  19.101  0.00  0.00    +0.020 C 
BRANCH  12  11
ATOM     11  C   UNL     1      41.831  21.312  18.964  0.00  0.00    +0.352 C 
ATOM     35  O   UNL     1      41.521  22.455  18.726  0.00  0.00    -0.451 OA
BRANCH  11  10
ATOM     10  C   UNL     1      40.765  20.260  19.123  0.00  0.00    +0.021 C 
BRANCH  10   9
ATOM      9  C   UNL     1      41.351  19.044  19.841  0.00  0.00    +0.020 C 
BRANCH   9   8
ATOM      8  C   UNL     1      40.994  19.107  21.327  0.00  0.00    +0.001 C 
BRANCH   8   1
ATOM      1  C   UNL     1      42.256  18.888  22.165  0.00  0.00    +0.001 C 
BRANCH   1   2
ATOM      2  C   UNL     1      42.926  17.579  21.744  0.00  0.00    -0.012 C 
BRANCH   2   3
ATOM      3  C   UNL     1      44.404  17.837  21.442  0.00  0.00    +0.021 C 
BRANCH   3   4
ATOM      4  C   UNL     1      44.677  17.567  19.961  0.00  0.00    -0.076 C 
BRANCH   4   5
ATOM      5  C   UNL     1      45.281  16.196  19.803  0.00  0.00    +0.487 C 
ATOM      6  O   UNL     1      45.294  15.423  20.745  0.00  0.00    -0.710 OA
ATOM      7  O   UNL     1      45.758  15.860  18.732  0.00  0.00    -0.700 OA
ENDBRANCH   4   5
ENDBRANCH   3   4
ENDBRANCH   2   3
ENDBRANCH   1   2
ENDBRANCH   8   1
ENDBRANCH   9   8
ENDBRANCH  10   9
ENDBRANCH  11  10
ENDBRANCH  12  11
ENDBRANCH  13  12
ENDBRANCH  14  13
ENDBRANCH  15  14
ENDBRANCH  16  15
ENDBRANCH  17  16
BRANCH  17  18
ATOM     18  C   UNL     1      49.219  20.235  20.954  0.00  0.00    +0.178 C 
BRANCH  18  19
ATOM     19  O   UNL     1      50.198  20.899  20.153  0.00  0.00    -0.366 OA
BRANCH  19  20
ATOM     20  C   UNL     1      50.361  20.335  18.849  0.00  0.00    +0.286 C 
ATOM     21  C   UNL     1      51.309  21.213  18.028  0.00  0.00    +0.137 C 
ATOM     24  C   UNL     1      51.527  20.570  16.655  0.00  0.00    +0.164 C 
ATOM     27  C   UNL     1      52.069  19.152  16.847  0.00  0.00    +0.177 C 
ATOM     30  C   UNL     1      51.092  18.353  17.714  0.00  0.00    +0.190 C 
ATOM     34  O   UNL     1      50.911  19.020  18.964  0.00  0.00    -0.373 OA
BRANCH  21  22
ATOM     22  O   UNL     1      52.562  21.327  18.707  0.00  0.00    -0.540 OA
ATOM     23  H   UNL     1      53.238  21.805  18.207  0.00  0.00    +0.389 HD
ENDBRANCH  21  22
BRANCH  24  25
ATOM     25  O   UNL     1      52.466  21.347  15.907  0.00  0.00    -0.548 OA
ATOM     26  H   UNL     1      52.074  22.098  15.442  0.00  0.00    +0.386 HD
ENDBRANCH  24  25
BRANCH  27  28
ATOM     28  O   UNL     1      52.209  18.517  15.575  0.00  0.00    -0.557 OA
ATOM     29  H   UNL     1      51.677  17.715  15.475  0.00  0.00    +0.393 HD
ENDBRANCH  27  28
BRANCH  30  31
ATOM     31  C   UNL     1      51.656  16.952  17.960  0.00  0.00    +0.223 C 
BRANCH  31  32
ATOM     32  O   UNL     1      53.051  17.046  18.253  0.00  0.00    -0.568 OA
ATOM     33  H   UNL     1      53.569  17.485  17.564  0.00  0.00    +0.384 HD
ENDBRANCH  31  32
ENDBRANCH  30  31
ENDBRANCH  19  20
ENDBRANCH  18  19
ENDBRANCH  17  18
TORSDOF 22
ENDMDL
