MODEL 1
REMARK VINA RESULT:      -6.6      0.000      0.000
REMARK  Name = ZINC95485894
REMARK  13 active torsions:
REMARK  status: ('A' for Active; 'I' for Inactive)
REMARK    1  A    between atoms: C1_1  and  C2_2
REMARK    2  A    between atoms: C2_2  and  C32_45
REMARK    3  A    between atoms: C3_3  and  C4_4
REMARK    4  A    between atoms: C10_11  and  O3_20
REMARK    5  A    between atoms: C11_12  and  O2_18
REMARK    6  A    between atoms: N1_14  and  C14_17
REMARK    7  A    between atoms: O2_18  and  C15_19
REMARK    8  A    between atoms: O3_20  and  C16_21
REMARK    9  A    between atoms: N2_33  and  C31_44
REMARK   10  A    between atoms: C27_38  and  O8_42
REMARK   11  A    between atoms: C28_39  and  O7_40
REMARK   12  A    between atoms: O7_40  and  C29_41
REMARK   13  A    between atoms: O8_42  and  C30_43
REMARK                            x       y       z     vdW  Elec       q    Type
REMARK                         _______ _______ _______ _____ _____    ______ ____
ROOT
ATOM      5  C   UNL     1      49.866  18.932  19.083  0.00  0.00    +0.128 C 
ATOM      6  C   UNL     1      50.202  17.496  19.412  0.00  0.00    -0.291 A 
ATOM      7  C   UNL     1      49.259  16.635  19.888  0.00  0.00    +0.233 A 
ATOM      8  O   UNL     1      47.974  17.004  20.102  0.00  0.00    -0.266 OA
ATOM      9  C   UNL     1      47.711  18.404  20.177  0.00  0.00    +0.230 C 
ATOM     10  C   UNL     1      46.234  18.684  20.183  0.00  0.00    -0.185 A 
ATOM     11  C   UNL     1      45.380  17.856  20.947  0.00  0.00    +0.544 A 
ATOM     12  N   UNL     1      44.053  18.062  21.003  0.00  0.00    -0.515 N 
ATOM     13  C   UNL     1      43.217  17.171  21.811  0.00  0.00    +0.324 C 
ATOM     14  C   UNL     1      43.469  19.102  20.308  0.00  0.00    +0.220 A 
ATOM     15  C   UNL     1      44.275  19.961  19.536  0.00  0.00    -0.154 A 
ATOM     16  C   UNL     1      43.693  21.020  18.829  0.00  0.00    +0.129 A 
ATOM     17  C   UNL     1      42.346  21.224  18.900  0.00  0.00    -0.077 A 
ATOM     18  C   UNL     1      41.541  20.388  19.669  0.00  0.00    +0.169 A 
ATOM     21  C   UNL     1      42.096  19.321  20.366  0.00  0.00    +0.012 A 
ATOM     24  O   UNL     1      45.860  16.927  21.573  0.00  0.00    -0.509 OA
ATOM     25  C   UNL     1      45.720  19.721  19.477  0.00  0.00    +0.007 A 
ATOM     26  C   UNL     1      46.576  20.625  18.634  0.00  0.00    +0.302 C 
ATOM     27  O   UNL     1      47.961  20.445  18.936  0.00  0.00    -0.341 OA
ATOM     28  C   UNL     1      49.658  15.250  20.183  0.00  0.00    -0.155 A 
ATOM     29  C   UNL     1      48.732  14.322  20.666  0.00  0.00    +0.160 A 
ATOM     30  C   UNL     1      49.128  13.042  20.933  0.00  0.00    -0.089 A 
ATOM     31  C   UNL     1      50.449  12.653  20.728  0.00  0.00    +0.177 A 
ATOM     34  C   UNL     1      51.384  13.560  20.249  0.00  0.00    +0.003 A 
ATOM     37  C   UNL     1      50.994  14.867  19.971  0.00  0.00    +0.230 A 
ATOM     38  N   UNL     1      51.899  15.793  19.488  0.00  0.00    -0.520 N 
ATOM     39  C   UNL     1      53.292  15.394  19.271  0.00  0.00    +0.317 C 
ATOM     40  C   UNL     1      51.522  17.052  19.218  0.00  0.00    +0.556 A 
ATOM     41  O   UNL     1      52.352  17.838  18.790  0.00  0.00    -0.517 OA
ATOM     42  C   UNL     1      48.349  19.071  18.949  0.00  0.00    +0.151 C 
ENDROOT
BRANCH   5   4
ATOM      1  C   UNL     1      51.350  21.322  18.909  0.00  0.00    +0.072 C 
ATOM      2  C   UNL     1      51.255  20.404  17.718  0.00  0.00    -0.101 C 
ATOM      3  C   UNL     1      52.003  20.732  16.452  0.00  0.00    +0.071 C 
ATOM      4  C   UNL     1      50.524  19.318  17.783  0.00  0.00    -0.038 C 
ENDBRANCH   5   4
BRANCH  18  19
ATOM     19  O   UNL     1      40.202  20.607  19.726  0.00  0.00    -0.299 OA
ATOM     20  C   UNL     1      39.635  21.435  18.709  0.00  0.00    +0.251 C 
ENDBRANCH  18  19
BRANCH  21  22
ATOM     22  O   UNL     1      41.303  18.506  21.115  0.00  0.00    -0.312 OA
ATOM     23  C   UNL     1      40.466  19.132  22.089  0.00  0.00    +0.222 C 
ENDBRANCH  21  22
BRANCH  31  32
ATOM     32  O   UNL     1      50.826  11.376  21.001  0.00  0.00    -0.299 OA
ATOM     33  C   UNL     1      49.868  10.348  20.744  0.00  0.00    +0.250 C 
ENDBRANCH  31  32
BRANCH  34  35
ATOM     35  O   UNL     1      52.674  13.174  20.051  0.00  0.00    -0.308 OA
ATOM     36  C   UNL     1      52.921  12.260  18.981  0.00  0.00    +0.217 C 
ENDBRANCH  34  35
TORSDOF 5
ENDMDL
MODEL 2
REMARK VINA RESULT:      -6.4      3.115      5.319
REMARK  Name = ZINC95485894
REMARK  13 active torsions:
REMARK  status: ('A' for Active; 'I' for Inactive)
REMARK    1  A    between atoms: C1_1  and  C2_2
REMARK    2  A    between atoms: C2_2  and  C32_45
REMARK    3  A    between atoms: C3_3  and  C4_4
REMARK    4  A    between atoms: C10_11  and  O3_20
REMARK    5  A    between atoms: C11_12  and  O2_18
REMARK    6  A    between atoms: N1_14  and  C14_17
REMARK    7  A    between atoms: O2_18  and  C15_19
REMARK    8  A    between atoms: O3_20  and  C16_21
REMARK    9  A    between atoms: N2_33  and  C31_44
REMARK   10  A    between atoms: C27_38  and  O8_42
REMARK   11  A    between atoms: C28_39  and  O7_40
REMARK   12  A    between atoms: O7_40  and  C29_41
REMARK   13  A    between atoms: O8_42  and  C30_43
REMARK                            x       y       z     vdW  Elec       q    Type
REMARK                         _______ _______ _______ _____ _____    ______ ____
ROOT
ATOM      5  C   UNL     1      48.852  13.887  16.562  0.00  0.00    +0.128 C 
ATOM      6  C   UNL     1      50.158  13.606  17.267  0.00  0.00    -0.291 A 
ATOM      7  C   UNL     1      50.708  14.504  18.132  0.00  0.00    +0.233 A 
ATOM      8  O   UNL     1      50.132  15.696  18.412  0.00  0.00    -0.266 OA
ATOM      9  C   UNL     1      49.134  16.158  17.503  0.00  0.00    +0.230 C 
ATOM     10  C   UNL     1      48.417  17.363  18.043  0.00  0.00    -0.185 A 
ATOM     11  C   UNL     1      49.160  18.369  18.703  0.00  0.00    +0.544 A 
ATOM     12  N   UNL     1      48.579  19.474  19.196  0.00  0.00    -0.515 N 
ATOM     13  C   UNL     1      49.400  20.484  19.871  0.00  0.00    +0.324 C 
ATOM     14  C   UNL     1      47.218  19.671  19.077  0.00  0.00    +0.220 A 
ATOM     15  C   UNL     1      46.431  18.704  18.423  0.00  0.00    -0.154 A 
ATOM     16  C   UNL     1      45.050  18.895  18.294  0.00  0.00    +0.129 A 
ATOM     17  C   UNL     1      44.471  20.026  18.793  0.00  0.00    -0.077 A 
ATOM     18  C   UNL     1      45.241  20.994  19.431  0.00  0.00    +0.169 A 
ATOM     21  C   UNL     1      46.611  20.818  19.583  0.00  0.00    +0.012 A 
ATOM     24  O   UNL     1      50.365  18.228  18.828  0.00  0.00    -0.509 OA
ATOM     25  C   UNL     1      47.076  17.498  17.895  0.00  0.00    +0.007 A 
ATOM     26  C   UNL     1      46.230  16.454  17.218  0.00  0.00    +0.302 C 
ATOM     27  O   UNL     1      47.045  15.521  16.505  0.00  0.00    -0.341 OA
ATOM     28  C   UNL     1      51.981  14.160  18.785  0.00  0.00    -0.155 A 
ATOM     29  C   UNL     1      52.587  15.039  19.687  0.00  0.00    +0.160 A 
ATOM     30  C   UNL     1      53.770  14.695  20.279  0.00  0.00    -0.089 A 
ATOM     31  C   UNL     1      54.379  13.477  19.991  0.00  0.00    +0.177 A 
ATOM     34  C   UNL     1      53.793  12.591  19.098  0.00  0.00    +0.003 A 
ATOM     37  C   UNL     1      52.587  12.926  18.488  0.00  0.00    +0.230 A 
ATOM     38  N   UNL     1      51.975  12.064  17.598  0.00  0.00    -0.520 N 
ATOM     39  C   UNL     1      52.608  10.780  17.288  0.00  0.00    +0.317 C 
ATOM     40  C   UNL     1      50.811  12.386  17.013  0.00  0.00    +0.556 A 
ATOM     41  O   UNL     1      50.302  11.596  16.236  0.00  0.00    -0.517 OA
ATOM     42  C   UNL     1      48.126  15.019  17.291  0.00  0.00    +0.151 C 
ENDROOT
BRANCH   5   4
ATOM      1  C   UNL     1      47.757  12.901  14.158  0.00  0.00    +0.072 C 
ATOM      2  C   UNL     1      47.529  12.162  15.451  0.00  0.00    -0.101 C 
ATOM      3  C   UNL     1      46.767  10.863  15.452  0.00  0.00    +0.071 C 
ATOM      4  C   UNL     1      47.995  12.648  16.576  0.00  0.00    -0.038 C 
ENDBRANCH   5   4
BRANCH  18  19
ATOM     19  O   UNL     1      44.647  22.113  19.921  0.00  0.00    -0.299 OA
ATOM     20  C   UNL     1      43.305  22.370  19.506  0.00  0.00    +0.251 C 
ENDBRANCH  18  19
BRANCH  21  22
ATOM     22  O   UNL     1      47.359  21.768  20.209  0.00  0.00    -0.312 OA
ATOM     23  C   UNL     1      47.106  21.980  21.599  0.00  0.00    +0.222 C 
ENDBRANCH  21  22
BRANCH  31  32
ATOM     32  O   UNL     1      55.556  13.153  20.588  0.00  0.00    -0.299 OA
ATOM     33  C   UNL     1      56.713  13.883  20.177  0.00  0.00    +0.250 C 
ENDBRANCH  31  32
BRANCH  34  35
ATOM     35  O   UNL     1      54.393  11.402  18.820  0.00  0.00    -0.308 OA
ATOM     36  C   UNL     1      54.463  10.447  19.881  0.00  0.00    +0.217 C 
ENDBRANCH  34  35
TORSDOF 5
ENDMDL
MODEL 3
REMARK VINA RESULT:      -5.8      3.249      4.534
REMARK  Name = ZINC95485894
REMARK  13 active torsions:
REMARK  status: ('A' for Active; 'I' for Inactive)
REMARK    1  A    between atoms: C1_1  and  C2_2
REMARK    2  A    between atoms: C2_2  and  C32_45
REMARK    3  A    between atoms: C3_3  and  C4_4
REMARK    4  A    between atoms: C10_11  and  O3_20
REMARK    5  A    between atoms: C11_12  and  O2_18
REMARK    6  A    between atoms: N1_14  and  C14_17
REMARK    7  A    between atoms: O2_18  and  C15_19
REMARK    8  A    between atoms: O3_20  and  C16_21
REMARK    9  A    between atoms: N2_33  and  C31_44
REMARK   10  A    between atoms: C27_38  and  O8_42
REMARK   11  A    between atoms: C28_39  and  O7_40
REMARK   12  A    between atoms: O7_40  and  C29_41
REMARK   13  A    between atoms: O8_42  and  C30_43
REMARK                            x       y       z     vdW  Elec       q    Type
REMARK                         _______ _______ _______ _____ _____    ______ ____
ROOT
ATOM      5  C   UNL     1      50.798  15.318  19.806  0.00  0.00    +0.128 C 
ATOM      6  C   UNL     1      50.127  14.305  18.909  0.00  0.00    -0.291 A 
ATOM      7  C   UNL     1      48.823  14.436  18.537  0.00  0.00    +0.233 A 
ATOM      8  O   UNL     1      48.047  15.467  18.945  0.00  0.00    -0.266 OA
ATOM      9  C   UNL     1      48.507  16.211  20.072  0.00  0.00    +0.230 C 
ATOM     10  C   UNL     1      47.687  17.454  20.278  0.00  0.00    -0.185 A 
ATOM     11  C   UNL     1      46.284  17.389  20.115  0.00  0.00    +0.544 A 
ATOM     12  N   UNL     1      45.497  18.462  20.297  0.00  0.00    -0.515 N 
ATOM     13  C   UNL     1      44.048  18.336  20.113  0.00  0.00    +0.324 C 
ATOM     14  C   UNL     1      46.035  19.682  20.654  0.00  0.00    +0.220 A 
ATOM     15  C   UNL     1      47.426  19.801  20.836  0.00  0.00    -0.154 A 
ATOM     16  C   UNL     1      47.983  21.033  21.200  0.00  0.00    +0.129 A 
ATOM     17  C   UNL     1      47.172  22.115  21.390  0.00  0.00    -0.077 A 
ATOM     18  C   UNL     1      45.794  22.006  21.223  0.00  0.00    +0.169 A 
ATOM     21  C   UNL     1      45.223  20.796  20.847  0.00  0.00    +0.012 A 
ATOM     24  O   UNL     1      45.774  16.329  19.799  0.00  0.00    -0.509 OA
ATOM     25  C   UNL     1      48.276  18.625  20.627  0.00  0.00    +0.007 A 
ATOM     26  C   UNL     1      49.764  18.759  20.799  0.00  0.00    +0.302 C 
ATOM     27  O   UNL     1      50.389  17.475  20.864  0.00  0.00    -0.341 OA
ATOM     28  C   UNL     1      48.238  13.411  17.658  0.00  0.00    -0.155 A 
ATOM     29  C   UNL     1      46.908  13.498  17.238  0.00  0.00    +0.160 A 
ATOM     30  C   UNL     1      46.389  12.534  16.422  0.00  0.00    -0.089 A 
ATOM     31  C   UNL     1      47.172  11.462  16.004  0.00  0.00    +0.177 A 
ATOM     34  C   UNL     1      48.496  11.358  16.410  0.00  0.00    +0.003 A 
ATOM     37  C   UNL     1      49.039  12.334  17.240  0.00  0.00    +0.230 A 
ATOM     38  N   UNL     1      50.355  12.262  17.658  0.00  0.00    -0.520 N 
ATOM     39  C   UNL     1      51.188  11.138  17.225  0.00  0.00    +0.317 C 
ATOM     40  C   UNL     1      50.879  13.206  18.456  0.00  0.00    +0.556 A 
ATOM     41  O   UNL     1      52.045  13.106  18.799  0.00  0.00    -0.517 OA
ATOM     42  C   UNL     1      49.969  16.603  19.814  0.00  0.00    +0.151 C 
ENDROOT
BRANCH   5   4
ATOM      1  C   UNL     1      53.001  15.296  21.565  0.00  0.00    +0.072 C 
ATOM      2  C   UNL     1      53.211  15.554  20.095  0.00  0.00    -0.101 C 
ATOM      3  C   UNL     1      54.604  15.740  19.554  0.00  0.00    +0.071 C 
ATOM      4  C   UNL     1      52.181  15.615  19.287  0.00  0.00    -0.038 C 
ENDBRANCH   5   4
BRANCH  18  19
ATOM     19  O   UNL     1      45.004  23.093  21.416  0.00  0.00    -0.299 OA
ATOM     20  C   UNL     1      45.433  24.321  20.824  0.00  0.00    +0.251 C 
ENDBRANCH  18  19
BRANCH  21  22
ATOM     22  O   UNL     1      43.875  20.697  20.685  0.00  0.00    -0.312 OA
ATOM     23  C   UNL     1      43.310  21.337  19.539  0.00  0.00    +0.222 C 
ENDBRANCH  21  22
BRANCH  31  32
ATOM     32  O   UNL     1      46.639  10.510  15.194  0.00  0.00    -0.299 OA
ATOM     33  C   UNL     1      45.214  10.398  15.177  0.00  0.00    +0.250 C 
ENDBRANCH  31  32
BRANCH  34  35
ATOM     35  O   UNL     1      49.258  10.308  15.999  0.00  0.00    -0.308 OA
ATOM     36  C   UNL     1      49.644  10.286  14.623  0.00  0.00    +0.217 C 
ENDBRANCH  34  35
TORSDOF 5
ENDMDL
MODEL 4
REMARK VINA RESULT:      -4.6      2.705     10.308
REMARK  Name = ZINC95485894
REMARK  13 active torsions:
REMARK  status: ('A' for Active; 'I' for Inactive)
REMARK    1  A    between atoms: C1_1  and  C2_2
REMARK    2  A    between atoms: C2_2  and  C32_45
REMARK    3  A    between atoms: C3_3  and  C4_4
REMARK    4  A    between atoms: C10_11  and  O3_20
REMARK    5  A    between atoms: C11_12  and  O2_18
REMARK    6  A    between atoms: N1_14  and  C14_17
REMARK    7  A    between atoms: O2_18  and  C15_19
REMARK    8  A    between atoms: O3_20  and  C16_21
REMARK    9  A    between atoms: N2_33  and  C31_44
REMARK   10  A    between atoms: C27_38  and  O8_42
REMARK   11  A    between atoms: C28_39  and  O7_40
REMARK   12  A    between atoms: O7_40  and  C29_41
REMARK   13  A    between atoms: O8_42  and  C30_43
REMARK                            x       y       z     vdW  Elec       q    Type
REMARK                         _______ _______ _______ _____ _____    ______ ____
ROOT
ATOM      5  C   UNL     1      47.202  15.095  20.690  0.00  0.00    +0.128 C 
ATOM      6  C   UNL     1      46.947  16.582  20.763  0.00  0.00    -0.291 A 
ATOM      7  C   UNL     1      47.965  17.471  20.941  0.00  0.00    +0.233 A 
ATOM      8  O   UNL     1      49.257  17.086  21.068  0.00  0.00    -0.266 OA
ATOM      9  C   UNL     1      49.491  15.716  21.390  0.00  0.00    +0.230 C 
ATOM     10  C   UNL     1      50.949  15.369  21.275  0.00  0.00    -0.185 A 
ATOM     11  C   UNL     1      51.915  16.286  21.749  0.00  0.00    +0.544 A 
ATOM     12  N   UNL     1      53.232  16.027  21.686  0.00  0.00    -0.515 N 
ATOM     13  C   UNL     1      54.188  17.016  22.193  0.00  0.00    +0.324 C 
ATOM     14  C   UNL     1      53.696  14.844  21.148  0.00  0.00    +0.220 A 
ATOM     15  C   UNL     1      52.776  13.892  20.667  0.00  0.00    -0.154 A 
ATOM     16  C   UNL     1      53.235  12.687  20.122  0.00  0.00    +0.129 A 
ATOM     17  C   UNL     1      54.575  12.433  20.069  0.00  0.00    -0.077 A 
ATOM     18  C   UNL     1      55.493  13.361  20.553  0.00  0.00    +0.169 A 
ATOM     21  C   UNL     1      55.059  14.570  21.084  0.00  0.00    +0.012 A 
ATOM     24  O   UNL     1      51.542  17.342  22.229  0.00  0.00    -0.509 OA
ATOM     25  C   UNL     1      51.342  14.189  20.735  0.00  0.00    +0.007 A 
ATOM     26  C   UNL     1      50.362  13.181  20.198  0.00  0.00    +0.302 C 
ATOM     27  O   UNL     1      49.032  13.487  20.622  0.00  0.00    -0.341 OA
ATOM     28  C   UNL     1      47.643  18.905  20.998  0.00  0.00    -0.155 A 
ATOM     29  C   UNL     1      48.647  19.862  21.171  0.00  0.00    +0.160 A 
ATOM     30  C   UNL     1      48.321  21.187  21.221  0.00  0.00    -0.089 A 
ATOM     31  C   UNL     1      46.995  21.595  21.103  0.00  0.00    +0.177 A 
ATOM     34  C   UNL     1      45.983  20.661  20.931  0.00  0.00    +0.003 A 
ATOM     37  C   UNL     1      46.301  19.306  20.876  0.00  0.00    +0.230 A 
ATOM     38  N   UNL     1      45.318  18.351  20.700  0.00  0.00    -0.520 N 
ATOM     39  C   UNL     1      43.920  18.770  20.576  0.00  0.00    +0.317 C 
ATOM     40  C   UNL     1      45.625  17.045  20.644  0.00  0.00    +0.556 A 
ATOM     41  O   UNL     1      44.728  16.235  20.485  0.00  0.00    -0.517 OA
ATOM     42  C   UNL     1      48.685  14.856  20.406  0.00  0.00    +0.151 C 
ENDROOT
BRANCH   5   4
ATOM      1  C   UNL     1      45.488  12.921  21.227  0.00  0.00    +0.072 C 
ATOM      2  C   UNL     1      45.540  13.519  19.845  0.00  0.00    -0.101 C 
ATOM      3  C   UNL     1      44.632  12.994  18.763  0.00  0.00    +0.071 C 
ATOM      4  C   UNL     1      46.373  14.495  19.583  0.00  0.00    -0.038 C 
ENDBRANCH   5   4
BRANCH  18  19
ATOM     19  O   UNL     1      56.822  13.090  20.492  0.00  0.00    -0.299 OA
ATOM     20  C   UNL     1      57.337  12.152  21.438  0.00  0.00    +0.251 C 
ENDBRANCH  18  19
BRANCH  21  22
ATOM     22  O   UNL     1      55.962  15.475  21.554  0.00  0.00    -0.312 OA
ATOM     23  C   UNL     1      56.876  16.031  20.607  0.00  0.00    +0.222 C 
ENDBRANCH  21  22
BRANCH  31  32
ATOM     32  O   UNL     1      46.689  22.918  21.158  0.00  0.00    -0.299 OA
ATOM     33  C   UNL     1      47.278  23.677  22.215  0.00  0.00    +0.250 C 
ENDBRANCH  31  32
BRANCH  34  35
ATOM     35  O   UNL     1      44.689  21.065  20.816  0.00  0.00    -0.308 OA
ATOM     36  C   UNL     1      44.346  21.819  19.652  0.00  0.00    +0.217 C 
ENDBRANCH  34  35
TORSDOF 5
ENDMDL
MODEL 5
REMARK VINA RESULT:      -4.5      2.919     10.358
REMARK  Name = ZINC95485894
REMARK  13 active torsions:
REMARK  status: ('A' for Active; 'I' for Inactive)
REMARK    1  A    between atoms: C1_1  and  C2_2
REMARK    2  A    between atoms: C2_2  and  C32_45
REMARK    3  A    between atoms: C3_3  and  C4_4
REMARK    4  A    between atoms: C10_11  and  O3_20
REMARK    5  A    between atoms: C11_12  and  O2_18
REMARK    6  A    between atoms: N1_14  and  C14_17
REMARK    7  A    between atoms: O2_18  and  C15_19
REMARK    8  A    between atoms: O3_20  and  C16_21
REMARK    9  A    between atoms: N2_33  and  C31_44
REMARK   10  A    between atoms: C27_38  and  O8_42
REMARK   11  A    between atoms: C28_39  and  O7_40
REMARK   12  A    between atoms: O7_40  and  C29_41
REMARK   13  A    between atoms: O8_42  and  C30_43
REMARK                            x       y       z     vdW  Elec       q    Type
REMARK                         _______ _______ _______ _____ _____    ______ ____
ROOT
ATOM      5  C   UNL     1      48.291  14.767  19.026  0.00  0.00    +0.128 C 
ATOM      6  C   UNL     1      47.891  16.197  19.306  0.00  0.00    -0.291 A 
ATOM      7  C   UNL     1      48.755  17.078  19.885  0.00  0.00    +0.233 A 
ATOM      8  O   UNL     1      50.012  16.735  20.249  0.00  0.00    -0.266 OA
ATOM      9  C   UNL     1      50.292  15.341  20.362  0.00  0.00    +0.230 C 
ATOM     10  C   UNL     1      51.763  15.091  20.544  0.00  0.00    -0.185 A 
ATOM     11  C   UNL     1      52.506  15.938  21.397  0.00  0.00    +0.544 A 
ATOM     12  N   UNL     1      53.820  15.758  21.610  0.00  0.00    -0.515 N 
ATOM     13  C   UNL     1      54.539  16.668  22.506  0.00  0.00    +0.324 C 
ATOM     14  C   UNL     1      54.502  14.728  20.993  0.00  0.00    +0.220 A 
ATOM     15  C   UNL     1      53.809  13.851  20.138  0.00  0.00    -0.154 A 
ATOM     16  C   UNL     1      54.490  12.800  19.509  0.00  0.00    +0.129 A 
ATOM     17  C   UNL     1      55.823  12.623  19.738  0.00  0.00    -0.077 A 
ATOM     18  C   UNL     1      56.516  13.478  20.592  0.00  0.00    +0.169 A 
ATOM     21  C   UNL     1      55.863  14.536  21.213  0.00  0.00    +0.012 A 
ATOM     24  O   UNL     1      51.937  16.859  21.957  0.00  0.00    -0.509 OA
ATOM     25  C   UNL     1      52.376  14.062  19.908  0.00  0.00    +0.007 A 
ATOM     26  C   UNL     1      51.642  13.138  18.975  0.00  0.00    +0.302 C 
ATOM     27  O   UNL     1      50.228  13.292  19.112  0.00  0.00    -0.341 OA
ATOM     28  C   UNL     1      48.297  18.456  20.124  0.00  0.00    -0.155 A 
ATOM     29  C   UNL     1      49.142  19.404  20.707  0.00  0.00    +0.160 A 
ATOM     30  C   UNL     1      48.692  20.676  20.918  0.00  0.00    -0.089 A 
ATOM     31  C   UNL     1      47.398  21.039  20.558  0.00  0.00    +0.177 A 
ATOM     34  C   UNL     1      46.543  20.112  19.977  0.00  0.00    +0.003 A 
ATOM     37  C   UNL     1      46.988  18.812  19.754  0.00  0.00    +0.230 A 
ATOM     38  N   UNL     1      46.163  17.867  19.174  0.00  0.00    -0.520 N 
ATOM     39  C   UNL     1      44.799  18.238  18.792  0.00  0.00    +0.317 C 
ATOM     40  C   UNL     1      46.594  16.614  18.956  0.00  0.00    +0.556 A 
ATOM     41  O   UNL     1      45.836  15.811  18.439  0.00  0.00    -0.517 OA
ATOM     42  C   UNL     1      49.815  14.658  19.072  0.00  0.00    +0.151 C 
ENDROOT
BRANCH   5   4
ATOM      1  C   UNL     1      47.039  12.268  18.660  0.00  0.00    +0.072 C 
ATOM      2  C   UNL     1      47.170  13.224  17.503  0.00  0.00    -0.101 C 
ATOM      3  C   UNL     1      46.579  12.870  16.162  0.00  0.00    +0.071 C 
ATOM      4  C   UNL     1      47.797  14.364  17.661  0.00  0.00    -0.038 C 
ENDBRANCH   5   4
BRANCH  18  19
ATOM     19  O   UNL     1      57.843  13.286  20.807  0.00  0.00    -0.299 OA
ATOM     20  C   UNL     1      58.207  12.312  21.787  0.00  0.00    +0.251 C 
ENDBRANCH  18  19
BRANCH  21  22
ATOM     22  O   UNL     1      56.546  15.369  22.046  0.00  0.00    -0.312 OA
ATOM     23  C   UNL     1      57.601  16.140  21.468  0.00  0.00    +0.222 C 
ENDBRANCH  21  22
BRANCH  31  32
ATOM     32  O   UNL     1      46.966  22.309  20.777  0.00  0.00    -0.299 OA
ATOM     33  C   UNL     1      47.058  22.802  22.115  0.00  0.00    +0.250 C 
ENDBRANCH  31  32
BRANCH  34  35
ATOM     35  O   UNL     1      45.278  20.472  19.628  0.00  0.00    -0.308 OA
ATOM     36  C   UNL     1      44.352  20.702  20.692  0.00  0.00    +0.217 C 
ENDBRANCH  34  35
TORSDOF 5
ENDMDL
MODEL 6
REMARK VINA RESULT:      -4.4      2.926      5.040
REMARK  Name = ZINC95485894
REMARK  13 active torsions:
REMARK  status: ('A' for Active; 'I' for Inactive)
REMARK    1  A    between atoms: C1_1  and  C2_2
REMARK    2  A    between atoms: C2_2  and  C32_45
REMARK    3  A    between atoms: C3_3  and  C4_4
REMARK    4  A    between atoms: C10_11  and  O3_20
REMARK    5  A    between atoms: C11_12  and  O2_18
REMARK    6  A    between atoms: N1_14  and  C14_17
REMARK    7  A    between atoms: O2_18  and  C15_19
REMARK    8  A    between atoms: O3_20  and  C16_21
REMARK    9  A    between atoms: N2_33  and  C31_44
REMARK   10  A    between atoms: C27_38  and  O8_42
REMARK   11  A    between atoms: C28_39  and  O7_40
REMARK   12  A    between atoms: O7_40  and  C29_41
REMARK   13  A    between atoms: O8_42  and  C30_43
REMARK                            x       y       z     vdW  Elec       q    Type
REMARK                         _______ _______ _______ _____ _____    ______ ____
ROOT
ATOM      5  C   UNL     1      51.813  14.628  20.834  0.00  0.00    +0.128 C 
ATOM      6  C   UNL     1      51.763  13.797  19.573  0.00  0.00    -0.291 A 
ATOM      7  C   UNL     1      50.875  14.068  18.575  0.00  0.00    +0.233 A 
ATOM      8  O   UNL     1      49.984  15.085  18.647  0.00  0.00    -0.266 OA
ATOM      9  C   UNL     1      49.736  15.633  19.941  0.00  0.00    +0.230 C 
ATOM     10  C   UNL     1      48.916  16.889  19.856  0.00  0.00    -0.185 A 
ATOM     11  C   UNL     1      47.835  16.945  18.946  0.00  0.00    +0.544 A 
ATOM     12  N   UNL     1      47.058  18.035  18.832  0.00  0.00    -0.515 N 
ATOM     13  C   UNL     1      45.951  18.037  17.872  0.00  0.00    +0.324 C 
ATOM     14  C   UNL     1      47.290  19.154  19.607  0.00  0.00    +0.220 A 
ATOM     15  C   UNL     1      48.350  19.149  20.533  0.00  0.00    -0.154 A 
ATOM     16  C   UNL     1      48.593  20.278  21.326  0.00  0.00    +0.129 A 
ATOM     17  C   UNL     1      47.793  21.376  21.207  0.00  0.00    -0.077 A 
ATOM     18  C   UNL     1      46.734  21.388  20.302  0.00  0.00    +0.169 A 
ATOM     21  C   UNL     1      46.485  20.284  19.495  0.00  0.00    +0.012 A 
ATOM     24  O   UNL     1      47.601  15.977  18.245  0.00  0.00    -0.509 OA
ATOM     25  C   UNL     1      49.196  17.957  20.643  0.00  0.00    +0.007 A 
ATOM     26  C   UNL     1      50.343  17.962  21.617  0.00  0.00    +0.302 C 
ATOM     27  O   UNL     1      50.851  16.641  21.813  0.00  0.00    -0.341 OA
ATOM     28  C   UNL     1      50.887  13.218  17.375  0.00  0.00    -0.155 A 
ATOM     29  C   UNL     1      50.004  13.455  16.317  0.00  0.00    +0.160 A 
ATOM     30  C   UNL     1      50.036  12.651  15.213  0.00  0.00    -0.089 A 
ATOM     31  C   UNL     1      50.939  11.595  15.132  0.00  0.00    +0.177 A 
ATOM     34  C   UNL     1      51.824  11.344  16.171  0.00  0.00    +0.003 A 
ATOM     37  C   UNL     1      51.805  12.156  17.302  0.00  0.00    +0.230 A 
ATOM     38  N   UNL     1      52.676  11.936  18.352  0.00  0.00    -0.520 N 
ATOM     39  C   UNL     1      53.630  10.827  18.276  0.00  0.00    +0.317 C 
ATOM     40  C   UNL     1      52.660  12.721  19.440  0.00  0.00    +0.556 A 
ATOM     41  O   UNL     1      53.447  12.494  20.343  0.00  0.00    -0.517 OA
ATOM     42  C   UNL     1      51.093  15.954  20.585  0.00  0.00    +0.151 C 
ENDROOT
BRANCH   5   4
ATOM      1  C   UNL     1      53.348  16.440  19.315  0.00  0.00    +0.072 C 
ATOM      2  C   UNL     1      53.945  15.776  20.529  0.00  0.00    -0.101 C 
ATOM      3  C   UNL     1      55.344  16.126  20.968  0.00  0.00    +0.071 C 
ATOM      4  C   UNL     1      53.248  14.896  21.205  0.00  0.00    -0.038 C 
ENDBRANCH   5   4
BRANCH  18  19
ATOM     19  O   UNL     1      45.949  22.491  20.197  0.00  0.00    -0.299 OA
ATOM     20  C   UNL     1      45.336  22.967  21.397  0.00  0.00    +0.251 C 
ENDBRANCH  18  19
BRANCH  21  22
ATOM     22  O   UNL     1      45.449  20.302  18.611  0.00  0.00    -0.312 OA
ATOM     23  C   UNL     1      44.130  20.260  19.158  0.00  0.00    +0.222 C 
ENDBRANCH  21  22
BRANCH  31  32
ATOM     32  O   UNL     1      50.955  10.804  14.027  0.00  0.00    -0.299 OA
ATOM     33  C   UNL     1      51.073  11.459  12.762  0.00  0.00    +0.250 C 
ENDBRANCH  31  32
BRANCH  34  35
ATOM     35  O   UNL     1      52.705  10.310  16.086  0.00  0.00    -0.308 OA
ATOM     36  C   UNL     1      53.706  10.393  15.070  0.00  0.00    +0.217 C 
ENDBRANCH  34  35
TORSDOF 5
ENDMDL
MODEL 7
REMARK VINA RESULT:      -4.2      2.168      2.472
REMARK  Name = ZINC95485894
REMARK  13 active torsions:
REMARK  status: ('A' for Active; 'I' for Inactive)
REMARK    1  A    between atoms: C1_1  and  C2_2
REMARK    2  A    between atoms: C2_2  and  C32_45
REMARK    3  A    between atoms: C3_3  and  C4_4
REMARK    4  A    between atoms: C10_11  and  O3_20
REMARK    5  A    between atoms: C11_12  and  O2_18
REMARK    6  A    between atoms: N1_14  and  C14_17
REMARK    7  A    between atoms: O2_18  and  C15_19
REMARK    8  A    between atoms: O3_20  and  C16_21
REMARK    9  A    between atoms: N2_33  and  C31_44
REMARK   10  A    between atoms: C27_38  and  O8_42
REMARK   11  A    between atoms: C28_39  and  O7_40
REMARK   12  A    between atoms: O7_40  and  C29_41
REMARK   13  A    between atoms: O8_42  and  C30_43
REMARK                            x       y       z     vdW  Elec       q    Type
REMARK                         _______ _______ _______ _____ _____    ______ ____
ROOT
ATOM      5  C   UNL     1      51.136  19.675  22.158  0.00  0.00    +0.128 C 
ATOM      6  C   UNL     1      51.548  18.251  21.867  0.00  0.00    -0.291 A 
ATOM      7  C   UNL     1      50.656  17.333  21.400  0.00  0.00    +0.233 A 
ATOM      8  O   UNL     1      49.355  17.628  21.174  0.00  0.00    -0.266 OA
ATOM      9  C   UNL     1      48.847  18.813  21.787  0.00  0.00    +0.230 C 
ATOM     10  C   UNL     1      47.474  19.148  21.277  0.00  0.00    -0.185 A 
ATOM     11  C   UNL     1      46.538  18.107  21.083  0.00  0.00    +0.544 A 
ATOM     12  N   UNL     1      45.292  18.345  20.641  0.00  0.00    -0.515 N 
ATOM     13  C   UNL     1      44.363  17.225  20.458  0.00  0.00    +0.324 C 
ATOM     14  C   UNL     1      44.875  19.629  20.355  0.00  0.00    +0.220 A 
ATOM     15  C   UNL     1      45.766  20.705  20.536  0.00  0.00    -0.154 A 
ATOM     16  C   UNL     1      45.354  22.012  20.251  0.00  0.00    +0.129 A 
ATOM     17  C   UNL     1      44.083  22.242  19.810  0.00  0.00    -0.077 A 
ATOM     18  C   UNL     1      43.190  21.188  19.638  0.00  0.00    +0.169 A 
ATOM     21  C   UNL     1      43.584  19.881  19.899  0.00  0.00    +0.012 A 
ATOM     24  O   UNL     1      46.871  16.960  21.324  0.00  0.00    -0.509 OA
ATOM     25  C   UNL     1      47.126  20.432  21.012  0.00  0.00    +0.007 A 
ATOM     26  C   UNL     1      48.084  21.579  21.182  0.00  0.00    +0.302 C 
ATOM     27  O   UNL     1      49.231  21.179  21.934  0.00  0.00    -0.341 OA
ATOM     28  C   UNL     1      51.130  15.966  21.136  0.00  0.00    -0.155 A 
ATOM     29  C   UNL     1      50.261  14.984  20.650  0.00  0.00    +0.160 A 
ATOM     30  C   UNL     1      50.727  13.722  20.412  0.00  0.00    -0.089 A 
ATOM     31  C   UNL     1      52.060  13.402  20.652  0.00  0.00    +0.177 A 
ATOM     34  C   UNL     1      52.939  14.363  21.135  0.00  0.00    +0.003 A 
ATOM     37  C   UNL     1      52.479  15.654  21.380  0.00  0.00    +0.230 A 
ATOM     38  N   UNL     1      53.329  16.634  21.855  0.00  0.00    -0.520 N 
ATOM     39  C   UNL     1      54.734  16.308  22.111  0.00  0.00    +0.317 C 
ATOM     40  C   UNL     1      52.886  17.880  22.088  0.00  0.00    +0.556 A 
ATOM     41  O   UNL     1      53.670  18.716  22.506  0.00  0.00    -0.517 OA
ATOM     42  C   UNL     1      49.809  19.964  21.456  0.00  0.00    +0.151 C 
ENDROOT
BRANCH   5   4
ATOM      1  C   UNL     1      51.257  20.305  19.413  0.00  0.00    +0.072 C 
ATOM      2  C   UNL     1      52.215  20.952  20.379  0.00  0.00    -0.101 C 
ATOM      3  C   UNL     1      53.200  21.981  19.889  0.00  0.00    +0.071 C 
ATOM      4  C   UNL     1      52.192  20.620  21.647  0.00  0.00    -0.038 C 
ENDBRANCH   5   4
BRANCH  18  19
ATOM     19  O   UNL     1      41.930  21.436  19.197  0.00  0.00    -0.299 OA
ATOM     20  C   UNL     1      41.683  22.725  18.631  0.00  0.00    +0.251 C 
ENDBRANCH  18  19
BRANCH  21  22
ATOM     22  O   UNL     1      42.706  18.854  19.728  0.00  0.00    -0.312 OA
ATOM     23  C   UNL     1      41.518  18.877  20.522  0.00  0.00    +0.222 C 
ENDBRANCH  21  22
BRANCH  31  32
ATOM     32  O   UNL     1      52.505  12.141  20.412  0.00  0.00    -0.299 OA
ATOM     33  C   UNL     1      51.612  11.069  20.718  0.00  0.00    +0.250 C 
ENDBRANCH  31  32
BRANCH  34  35
ATOM     35  O   UNL     1      54.241  14.044  21.367  0.00  0.00    -0.308 OA
ATOM     36  C   UNL     1      54.503  13.111  22.417  0.00  0.00    +0.217 C 
ENDBRANCH  34  35
TORSDOF 5
ENDMDL
MODEL 8
REMARK VINA RESULT:      -3.4      3.277      4.142
REMARK  Name = ZINC95485894
REMARK  13 active torsions:
REMARK  status: ('A' for Active; 'I' for Inactive)
REMARK    1  A    between atoms: C1_1  and  C2_2
REMARK    2  A    between atoms: C2_2  and  C32_45
REMARK    3  A    between atoms: C3_3  and  C4_4
REMARK    4  A    between atoms: C10_11  and  O3_20
REMARK    5  A    between atoms: C11_12  and  O2_18
REMARK    6  A    between atoms: N1_14  and  C14_17
REMARK    7  A    between atoms: O2_18  and  C15_19
REMARK    8  A    between atoms: O3_20  and  C16_21
REMARK    9  A    between atoms: N2_33  and  C31_44
REMARK   10  A    between atoms: C27_38  and  O8_42
REMARK   11  A    between atoms: C28_39  and  O7_40
REMARK   12  A    between atoms: O7_40  and  C29_41
REMARK   13  A    between atoms: O8_42  and  C30_43
REMARK                            x       y       z     vdW  Elec       q    Type
REMARK                         _______ _______ _______ _____ _____    ______ ____
ROOT
ATOM      5  C   UNL     1      50.127  16.457  20.029  0.00  0.00    +0.128 C 
ATOM      6  C   UNL     1      49.714  15.437  18.994  0.00  0.00    -0.291 A 
ATOM      7  C   UNL     1      48.552  15.565  18.293  0.00  0.00    +0.233 A 
ATOM      8  O   UNL     1      47.697  16.597  18.479  0.00  0.00    -0.266 OA
ATOM      9  C   UNL     1      47.846  17.348  19.683  0.00  0.00    +0.230 C 
ATOM     10  C   UNL     1      47.002  18.591  19.661  0.00  0.00    -0.185 A 
ATOM     11  C   UNL     1      45.690  18.524  19.137  0.00  0.00    +0.544 A 
ATOM     12  N   UNL     1      44.883  19.597  19.102  0.00  0.00    -0.515 N 
ATOM     13  C   UNL     1      43.533  19.468  18.547  0.00  0.00    +0.324 C 
ATOM     14  C   UNL     1      45.310  20.820  19.580  0.00  0.00    +0.220 A 
ATOM     15  C   UNL     1      46.605  20.941  20.118  0.00  0.00    -0.154 A 
ATOM     16  C   UNL     1      47.048  22.176  20.608  0.00  0.00    +0.129 A 
ATOM     17  C   UNL     1      46.216  23.257  20.574  0.00  0.00    -0.077 A 
ATOM     18  C   UNL     1      44.929  23.146  20.054  0.00  0.00    +0.169 A 
ATOM     21  C   UNL     1      44.475  21.934  19.548  0.00  0.00    +0.012 A 
ATOM     24  O   UNL     1      45.280  17.461  18.705  0.00  0.00    -0.509 OA
ATOM     25  C   UNL     1      47.480  19.764  20.145  0.00  0.00    +0.007 A 
ATOM     26  C   UNL     1      48.872  19.901  20.698  0.00  0.00    +0.302 C 
ATOM     27  O   UNL     1      49.457  18.619  20.931  0.00  0.00    -0.341 OA
ATOM     28  C   UNL     1      48.216  14.535  17.298  0.00  0.00    -0.155 A 
ATOM     29  C   UNL     1      47.042  14.618  16.545  0.00  0.00    +0.160 A 
ATOM     30  C   UNL     1      46.753  13.648  15.627  0.00  0.00    -0.089 A 
ATOM     31  C   UNL     1      47.619  12.575  15.434  0.00  0.00    +0.177 A 
ATOM     34  C   UNL     1      48.791  12.475  16.172  0.00  0.00    +0.003 A 
ATOM     37  C   UNL     1      49.099  13.456  17.110  0.00  0.00    +0.230 A 
ATOM     38  N   UNL     1      50.259  13.389  17.857  0.00  0.00    -0.520 N 
ATOM     39  C   UNL     1      51.176  12.263  17.662  0.00  0.00    +0.317 C 
ATOM     40  C   UNL     1      50.558  14.337  18.758  0.00  0.00    +0.556 A 
ATOM     41  O   UNL     1      51.594  14.241  19.395  0.00  0.00    -0.517 OA
ATOM     42  C   UNL     1      49.325  17.740  19.813  0.00  0.00    +0.151 C 
ENDROOT
BRANCH   5   4
ATOM      1  C   UNL     1      51.819  16.316  22.280  0.00  0.00    +0.072 C 
ATOM      2  C   UNL     1      52.392  16.636  20.924  0.00  0.00    -0.101 C 
ATOM      3  C   UNL     1      53.878  16.822  20.758  0.00  0.00    +0.071 C 
ATOM      4  C   UNL     1      51.598  16.752  19.887  0.00  0.00    -0.038 C 
ENDBRANCH   5   4
BRANCH  18  19
ATOM     19  O   UNL     1      44.116  24.233  20.028  0.00  0.00    -0.299 OA
ATOM     20  C   UNL     1      44.200  25.079  18.879  0.00  0.00    +0.251 C 
ENDBRANCH  18  19
BRANCH  21  22
ATOM     22  O   UNL     1      43.216  21.832  19.041  0.00  0.00    -0.312 OA
ATOM     23  C   UNL     1      42.143  21.755  19.980  0.00  0.00    +0.222 C 
ENDBRANCH  21  22
BRANCH  31  32
ATOM     32  O   UNL     1      47.315  11.619  14.518  0.00  0.00    -0.299 OA
ATOM     33  C   UNL     1      46.341  10.644  14.897  0.00  0.00    +0.250 C 
ENDBRANCH  31  32
BRANCH  34  35
ATOM     35  O   UNL     1      49.633  11.424  15.980  0.00  0.00    -0.308 OA
ATOM     36  C   UNL     1      50.262  11.322  14.700  0.00  0.00    +0.217 C 
ENDBRANCH  34  35
TORSDOF 5
ENDMDL
