MODEL 1
REMARK VINA RESULT:      -5.9      0.000      0.000
REMARK  Name = ZINC33831303
REMARK  5 active torsions:
REMARK  status: ('A' for Active; 'I' for Inactive)
REMARK    1  A    between atoms: C1_1  and  C2_2
REMARK    2  A    between atoms: C6_6  and  C19_24
REMARK    3  A    between atoms: C6_6  and  C20_25
REMARK    4  A    between atoms: C11_12  and  C12_14
REMARK    5  A    between atoms: C12_14  and  C13_15
REMARK                            x       y       z     vdW  Elec       q    Type
REMARK                         _______ _______ _______ _____ _____    ______ ____
ROOT
ATOM      1  C   UNL     1      45.468  20.731  19.044  0.00  0.00    +0.028 C 
ATOM      2  C   UNL     1      46.024  19.811  20.131  0.00  0.00    -0.034 C 
ATOM      3  C   UNL     1      46.696  18.601  19.479  0.00  0.00    +0.011 C 
ATOM      4  C   UNL     1      45.647  17.712  18.812  0.00  0.00    +0.003 C 
ATOM      5  C   UNL     1      44.683  17.188  19.871  0.00  0.00    +0.012 C 
ATOM      6  C   UNL     1      43.978  18.337  20.592  0.00  0.00    -0.049 C 
ATOM      7  C   UNL     1      42.918  18.950  19.678  0.00  0.00    +0.022 C 
ATOM      8  C   UNL     1      43.238  17.708  21.796  0.00  0.00    +0.012 C 
ATOM      9  C   UNL     1      47.102  20.599  20.906  0.00  0.00    +0.042 C 
ATOM     18  C   UNL     1      46.442  21.773  21.630  0.00  0.00    +0.031 C 
ATOM     19  C   UNL     1      47.350  22.900  22.137  0.00  0.00    +0.170 C 
ATOM     20  O   UNL     1      46.486  23.057  21.011  0.00  0.00    -0.338 OA
ATOM     21  C   UNL     1      45.236  21.429  22.505  0.00  0.00    +0.057 C 
ATOM     22  C   UNL     1      44.240  20.570  21.722  0.00  0.00    +0.024 C 
ATOM     23  C   UNL     1      44.960  19.364  21.122  0.00  0.00    +0.007 C 
ENDROOT
BRANCH   9  10
ATOM     10  C   UNL     1      48.141  21.133  19.918  0.00  0.00    +0.075 C 
BRANCH  10  11
ATOM     11  C   UNL     1      49.520  20.719  20.365  0.00  0.00    +0.121 C 
ATOM     12  C   UNL     1      50.510  20.640  19.480  0.00  0.00    -0.247 C 
ATOM     13  C   UNL     1      50.468  21.018  18.007  0.00  0.00    +0.073 C 
ATOM     14  C   UNL     1      51.906  20.727  17.528  0.00  0.00    +0.251 C 
ATOM     15  O   UNL     1      52.682  20.653  18.736  0.00  0.00    -0.341 OA
ATOM     16  C   UNL     1      51.890  20.172  19.717  0.00  0.00    +0.515 C 
ATOM     17  O   UNL     1      52.254  19.470  20.640  0.00  0.00    -0.446 OA
ENDBRANCH  10  11
ENDBRANCH   9  10
TORSDOF 2
ENDMDL
MODEL 2
REMARK VINA RESULT:      -5.8      1.987      3.852
REMARK  Name = ZINC33831303
REMARK  5 active torsions:
REMARK  status: ('A' for Active; 'I' for Inactive)
REMARK    1  A    between atoms: C1_1  and  C2_2
REMARK    2  A    between atoms: C6_6  and  C19_24
REMARK    3  A    between atoms: C6_6  and  C20_25
REMARK    4  A    between atoms: C11_12  and  C12_14
REMARK    5  A    between atoms: C12_14  and  C13_15
REMARK                            x       y       z     vdW  Elec       q    Type
REMARK                         _______ _______ _______ _____ _____    ______ ____
ROOT
ATOM      1  C   UNL     1      46.871  19.245  21.334  0.00  0.00    +0.028 C 
ATOM      2  C   UNL     1      47.015  20.320  20.255  0.00  0.00    -0.034 C 
ATOM      3  C   UNL     1      48.028  21.370  20.714  0.00  0.00    +0.011 C 
ATOM      4  C   UNL     1      47.463  22.167  21.890  0.00  0.00    +0.003 C 
ATOM      5  C   UNL     1      46.207  22.905  21.442  0.00  0.00    +0.012 C 
ATOM      6  C   UNL     1      45.141  21.929  20.945  0.00  0.00    -0.049 C 
ATOM      7  C   UNL     1      44.506  21.205  22.131  0.00  0.00    +0.022 C 
ATOM      8  C   UNL     1      44.036  22.787  20.284  0.00  0.00    +0.012 C 
ATOM      9  C   UNL     1      47.570  19.640  18.986  0.00  0.00    +0.042 C 
ATOM     18  C   UNL     1      46.541  18.637  18.462  0.00  0.00    +0.031 C 
ATOM     19  C   UNL     1      47.020  17.583  17.457  0.00  0.00    +0.170 C 
ATOM     20  O   UNL     1      46.700  17.264  18.812  0.00  0.00    -0.338 OA
ATOM     21  C   UNL     1      45.124  19.175  18.257  0.00  0.00    +0.057 C 
ATOM     22  C   UNL     1      44.653  19.921  19.508  0.00  0.00    +0.024 C 
ATOM     23  C   UNL     1      45.688  20.974  19.900  0.00  0.00    +0.007 C 
ENDROOT
BRANCH   9  10
ATOM     10  C   UNL     1      48.863  18.901  19.337  0.00  0.00    +0.075 C 
BRANCH  10  11
ATOM     11  C   UNL     1      49.951  19.307  18.376  0.00  0.00    +0.121 C 
ATOM     12  C   UNL     1      50.966  20.057  18.797  0.00  0.00    -0.247 C 
ATOM     13  C   UNL     1      51.249  20.517  20.220  0.00  0.00    +0.073 C 
ATOM     14  C   UNL     1      52.557  21.324  20.075  0.00  0.00    +0.251 C 
ATOM     15  O   UNL     1      53.096  20.916  18.807  0.00  0.00    -0.341 OA
ATOM     16  C   UNL     1      52.065  20.618  17.987  0.00  0.00    +0.515 C 
ATOM     17  O   UNL     1      52.047  20.785  16.784  0.00  0.00    -0.446 OA
ENDBRANCH  10  11
ENDBRANCH   9  10
TORSDOF 2
ENDMDL
MODEL 3
REMARK VINA RESULT:      -5.7      3.669      7.071
REMARK  Name = ZINC33831303
REMARK  5 active torsions:
REMARK  status: ('A' for Active; 'I' for Inactive)
REMARK    1  A    between atoms: C1_1  and  C2_2
REMARK    2  A    between atoms: C6_6  and  C19_24
REMARK    3  A    between atoms: C6_6  and  C20_25
REMARK    4  A    between atoms: C11_12  and  C12_14
REMARK    5  A    between atoms: C12_14  and  C13_15
REMARK                            x       y       z     vdW  Elec       q    Type
REMARK                         _______ _______ _______ _____ _____    ______ ____
ROOT
ATOM      1  C   UNL     1      50.748  18.091  19.686  0.00  0.00    +0.028 C 
ATOM      2  C   UNL     1      49.939  18.364  18.417  0.00  0.00    -0.034 C 
ATOM      3  C   UNL     1      50.274  17.307  17.363  0.00  0.00    +0.011 C 
ATOM      4  C   UNL     1      51.710  17.488  16.873  0.00  0.00    +0.003 C 
ATOM      5  C   UNL     1      51.850  18.856  16.214  0.00  0.00    +0.012 C 
ATOM      6  C   UNL     1      51.513  19.978  17.195  0.00  0.00    -0.049 C 
ATOM      7  C   UNL     1      52.652  20.150  18.198  0.00  0.00    +0.022 C 
ATOM      8  C   UNL     1      51.434  21.278  16.361  0.00  0.00    +0.012 C 
ATOM      9  C   UNL     1      48.444  18.228  18.776  0.00  0.00    +0.042 C 
ATOM     18  C   UNL     1      48.066  19.324  19.773  0.00  0.00    +0.031 C 
ATOM     19  C   UNL     1      46.757  19.155  20.555  0.00  0.00    +0.170 C 
ATOM     20  O   UNL     1      48.041  18.993  21.160  0.00  0.00    -0.338 OA
ATOM     21  C   UNL     1      48.436  20.752  19.373  0.00  0.00    +0.057 C 
ATOM     22  C   UNL     1      49.903  20.818  18.937  0.00  0.00    +0.024 C 
ATOM     23  C   UNL     1      50.169  19.763  17.865  0.00  0.00    +0.007 C 
ENDROOT
BRANCH   9  10
ATOM     10  C   UNL     1      48.204  16.858  19.413  0.00  0.00    +0.075 C 
BRANCH  10  11
ATOM     11  C   UNL     1      47.514  15.956  18.421  0.00  0.00    +0.121 C 
ATOM     12  C   UNL     1      46.719  14.980  18.850  0.00  0.00    -0.247 C 
ATOM     13  C   UNL     1      46.311  14.682  20.285  0.00  0.00    +0.073 C 
ATOM     14  C   UNL     1      45.376  13.462  20.139  0.00  0.00    +0.251 C 
ATOM     15  O   UNL     1      45.006  13.453  18.750  0.00  0.00    -0.341 OA
ATOM     16  C   UNL     1      46.037  13.954  18.036  0.00  0.00    +0.515 C 
ATOM     17  O   UNL     1      46.350  13.615  16.912  0.00  0.00    -0.446 OA
ENDBRANCH  10  11
ENDBRANCH   9  10
TORSDOF 2
ENDMDL
MODEL 4
REMARK VINA RESULT:      -5.5      2.241      3.918
REMARK  Name = ZINC33831303
REMARK  5 active torsions:
REMARK  status: ('A' for Active; 'I' for Inactive)
REMARK    1  A    between atoms: C1_1  and  C2_2
REMARK    2  A    between atoms: C6_6  and  C19_24
REMARK    3  A    between atoms: C6_6  and  C20_25
REMARK    4  A    between atoms: C11_12  and  C12_14
REMARK    5  A    between atoms: C12_14  and  C13_15
REMARK                            x       y       z     vdW  Elec       q    Type
REMARK                         _______ _______ _______ _____ _____    ______ ____
ROOT
ATOM      1  C   UNL     1      46.978  18.981  21.202  0.00  0.00    +0.028 C 
ATOM      2  C   UNL     1      46.765  19.058  19.689  0.00  0.00    -0.034 C 
ATOM      3  C   UNL     1      47.326  20.381  19.163  0.00  0.00    +0.011 C 
ATOM      4  C   UNL     1      46.481  21.550  19.667  0.00  0.00    +0.003 C 
ATOM      5  C   UNL     1      45.059  21.410  19.135  0.00  0.00    +0.012 C 
ATOM      6  C   UNL     1      44.423  20.099  19.598  0.00  0.00    -0.049 C 
ATOM      7  C   UNL     1      44.048  20.197  21.076  0.00  0.00    +0.022 C 
ATOM      8  C   UNL     1      43.107  19.946  18.800  0.00  0.00    +0.012 C 
ATOM      9  C   UNL     1      47.563  17.906  19.043  0.00  0.00    +0.042 C 
ATOM     18  C   UNL     1      46.971  16.571  19.495  0.00  0.00    +0.031 C 
ATOM     19  C   UNL     1      47.823  15.311  19.297  0.00  0.00    +0.170 C 
ATOM     20  O   UNL     1      47.596  15.891  20.582  0.00  0.00    -0.338 OA
ATOM     21  C   UNL     1      45.463  16.406  19.304  0.00  0.00    +0.057 C 
ATOM     22  C   UNL     1      44.721  17.616  19.878  0.00  0.00    +0.024 C 
ATOM     23  C   UNL     1      45.304  18.902  19.295  0.00  0.00    +0.007 C 
ENDROOT
BRANCH   9  10
ATOM     10  C   UNL     1      49.022  17.993  19.495  0.00  0.00    +0.075 C 
BRANCH  10  11
ATOM     11  C   UNL     1      49.925  17.961  18.288  0.00  0.00    +0.121 C 
ATOM     12  C   UNL     1      50.657  19.028  17.977  0.00  0.00    -0.247 C 
ATOM     13  C   UNL     1      50.788  20.323  18.765  0.00  0.00    +0.073 C 
ATOM     14  C   UNL     1      51.778  21.151  17.917  0.00  0.00    +0.251 C 
ATOM     15  O   UNL     1      52.412  20.190  17.058  0.00  0.00    -0.341 OA
ATOM     16  C   UNL     1      51.523  19.209  16.795  0.00  0.00    +0.515 C 
ATOM     17  O   UNL     1      51.448  18.582  15.756  0.00  0.00    -0.446 OA
ENDBRANCH  10  11
ENDBRANCH   9  10
TORSDOF 2
ENDMDL
MODEL 5
REMARK VINA RESULT:      -5.4      3.621      6.940
REMARK  Name = ZINC33831303
REMARK  5 active torsions:
REMARK  status: ('A' for Active; 'I' for Inactive)
REMARK    1  A    between atoms: C1_1  and  C2_2
REMARK    2  A    between atoms: C6_6  and  C19_24
REMARK    3  A    between atoms: C6_6  and  C20_25
REMARK    4  A    between atoms: C11_12  and  C12_14
REMARK    5  A    between atoms: C12_14  and  C13_15
REMARK                            x       y       z     vdW  Elec       q    Type
REMARK                         _______ _______ _______ _____ _____    ______ ____
ROOT
ATOM      1  C   UNL     1      47.240  16.219  20.285  0.00  0.00    +0.028 C 
ATOM      2  C   UNL     1      46.017  16.012  19.390  0.00  0.00    -0.034 C 
ATOM      3  C   UNL     1      44.953  15.222  20.155  0.00  0.00    +0.011 C 
ATOM      4  C   UNL     1      45.428  13.788  20.386  0.00  0.00    +0.003 C 
ATOM      5  C   UNL     1      45.632  13.101  19.040  0.00  0.00    +0.012 C 
ATOM      6  C   UNL     1      46.671  13.839  18.196  0.00  0.00    -0.049 C 
ATOM      7  C   UNL     1      48.071  13.571  18.744  0.00  0.00    +0.022 C 
ATOM      8  C   UNL     1      46.604  13.219  16.781  0.00  0.00    +0.012 C 
ATOM      9  C   UNL     1      45.436  17.404  19.060  0.00  0.00    +0.042 C 
ATOM     18  C   UNL     1      46.453  18.188  18.229  0.00  0.00    +0.031 C 
ATOM     19  C   UNL     1      46.263  19.705  18.116  0.00  0.00    +0.170 C 
ATOM     20  O   UNL     1      47.300  19.116  18.902  0.00  0.00    -0.338 OA
ATOM     21  C   UNL     1      46.994  17.478  16.987  0.00  0.00    +0.057 C 
ATOM     22  C   UNL     1      47.471  16.069  17.347  0.00  0.00    +0.024 C 
ATOM     23  C   UNL     1      46.360  15.320  18.080  0.00  0.00    +0.007 C 
ENDROOT
BRANCH   9  10
ATOM     10  C   UNL     1      45.163  18.155  20.365  0.00  0.00    +0.075 C 
BRANCH  10  11
ATOM     11  C   UNL     1      43.683  18.136  20.655  0.00  0.00    +0.121 C 
ATOM     12  C   UNL     1      42.895  19.083  20.152  0.00  0.00    -0.247 C 
ATOM     13  C   UNL     1      43.284  20.200  19.195  0.00  0.00    +0.073 C 
ATOM     14  C   UNL     1      41.952  20.947  18.967  0.00  0.00    +0.251 C 
ATOM     15  O   UNL     1      40.940  20.023  19.399  0.00  0.00    -0.341 OA
ATOM     16  C   UNL     1      41.452  19.274  20.398  0.00  0.00    +0.515 C 
ATOM     17  O   UNL     1      40.828  18.832  21.343  0.00  0.00    -0.446 OA
ENDBRANCH  10  11
ENDBRANCH   9  10
TORSDOF 2
ENDMDL
MODEL 6
REMARK VINA RESULT:      -5.3      1.860      2.735
REMARK  Name = ZINC33831303
REMARK  5 active torsions:
REMARK  status: ('A' for Active; 'I' for Inactive)
REMARK    1  A    between atoms: C1_1  and  C2_2
REMARK    2  A    between atoms: C6_6  and  C19_24
REMARK    3  A    between atoms: C6_6  and  C20_25
REMARK    4  A    between atoms: C11_12  and  C12_14
REMARK    5  A    between atoms: C12_14  and  C13_15
REMARK                            x       y       z     vdW  Elec       q    Type
REMARK                         _______ _______ _______ _____ _____    ______ ____
ROOT
ATOM      1  C   UNL     1      46.830  17.939  17.934  0.00  0.00    +0.028 C 
ATOM      2  C   UNL     1      47.164  17.965  19.426  0.00  0.00    -0.034 C 
ATOM      3  C   UNL     1      48.604  17.490  19.634  0.00  0.00    +0.011 C 
ATOM      4  C   UNL     1      48.720  16.003  19.305  0.00  0.00    +0.003 C 
ATOM      5  C   UNL     1      47.831  15.205  20.252  0.00  0.00    +0.012 C 
ATOM      6  C   UNL     1      46.368  15.630  20.125  0.00  0.00    -0.049 C 
ATOM      7  C   UNL     1      45.778  15.081  18.828  0.00  0.00    +0.022 C 
ATOM      8  C   UNL     1      45.614  14.955  21.295  0.00  0.00    +0.012 C 
ATOM      9  C   UNL     1      47.068  19.430  19.903  0.00  0.00    +0.042 C 
ATOM     18  C   UNL     1      45.620  19.905  19.776  0.00  0.00    +0.031 C 
ATOM     19  C   UNL     1      45.359  21.415  19.822  0.00  0.00    +0.170 C 
ATOM     20  O   UNL     1      45.256  20.653  18.618  0.00  0.00    -0.338 OA
ATOM     21  C   UNL     1      44.562  19.014  20.428  0.00  0.00    +0.057 C 
ATOM     22  C   UNL     1      44.756  17.558  19.998  0.00  0.00    +0.024 C 
ATOM     23  C   UNL     1      46.200  17.132  20.256  0.00  0.00    +0.007 C 
ENDROOT
BRANCH   9  10
ATOM     10  C   UNL     1      47.967  20.303  19.025  0.00  0.00    +0.075 C 
BRANCH  10  11
ATOM     11  C   UNL     1      49.112  20.834  19.849  0.00  0.00    +0.121 C 
ATOM     12  C   UNL     1      50.361  20.714  19.407  0.00  0.00    -0.247 C 
ATOM     13  C   UNL     1      50.820  20.162  18.065  0.00  0.00    +0.073 C 
ATOM     14  C   UNL     1      52.356  20.301  18.134  0.00  0.00    +0.251 C 
ATOM     15  O   UNL     1      52.587  21.238  19.199  0.00  0.00    -0.341 OA
ATOM     16  C   UNL     1      51.603  21.091  20.111  0.00  0.00    +0.515 C 
ATOM     17  O   UNL     1      51.721  21.244  21.311  0.00  0.00    -0.446 OA
ENDBRANCH  10  11
ENDBRANCH   9  10
TORSDOF 2
ENDMDL
MODEL 7
REMARK VINA RESULT:      -5.2      3.244      6.733
REMARK  Name = ZINC33831303
REMARK  5 active torsions:
REMARK  status: ('A' for Active; 'I' for Inactive)
REMARK    1  A    between atoms: C1_1  and  C2_2
REMARK    2  A    between atoms: C6_6  and  C19_24
REMARK    3  A    between atoms: C6_6  and  C20_25
REMARK    4  A    between atoms: C11_12  and  C12_14
REMARK    5  A    between atoms: C12_14  and  C13_15
REMARK                            x       y       z     vdW  Elec       q    Type
REMARK                         _______ _______ _______ _____ _____    ______ ____
ROOT
ATOM      1  C   UNL     1      47.111  18.202  18.834  0.00  0.00    +0.028 C 
ATOM      2  C   UNL     1      47.062  19.313  19.883  0.00  0.00    -0.034 C 
ATOM      3  C   UNL     1      47.384  20.654  19.220  0.00  0.00    +0.011 C 
ATOM      4  C   UNL     1      48.848  20.687  18.784  0.00  0.00    +0.003 C 
ATOM      5  C   UNL     1      49.744  20.554  20.011  0.00  0.00    +0.012 C 
ATOM      6  C   UNL     1      49.474  19.244  20.751  0.00  0.00    -0.049 C 
ATOM      7  C   UNL     1      50.072  18.075  19.970  0.00  0.00    +0.022 C 
ATOM      8  C   UNL     1      50.236  19.337  22.094  0.00  0.00    +0.012 C 
ATOM      9  C   UNL     1      45.620  19.381  20.429  0.00  0.00    +0.042 C 
ATOM     18  C   UNL     1      45.300  18.079  21.164  0.00  0.00    +0.031 C 
ATOM     19  C   UNL     1      43.826  17.765  21.448  0.00  0.00    +0.170 C 
ATOM     20  O   UNL     1      44.584  17.067  20.459  0.00  0.00    -0.338 OA
ATOM     21  C   UNL     1      46.303  17.649  22.234  0.00  0.00    +0.057 C 
ATOM     22  C   UNL     1      47.727  17.686  21.673  0.00  0.00    +0.024 C 
ATOM     23  C   UNL     1      48.000  19.055  21.053  0.00  0.00    +0.007 C 
ENDROOT
BRANCH   9  10
ATOM     10  C   UNL     1      44.649  19.554  19.259  0.00  0.00    +0.075 C 
BRANCH  10  11
ATOM     11  C   UNL     1      43.912  20.861  19.407  0.00  0.00    +0.121 C 
ATOM     12  C   UNL     1      42.651  20.964  18.996  0.00  0.00    -0.247 C 
ATOM     13  C   UNL     1      41.763  19.857  18.446  0.00  0.00    +0.073 C 
ATOM     14  C   UNL     1      40.428  20.582  18.170  0.00  0.00    +0.251 C 
ATOM     15  O   UNL     1      40.512  21.798  18.931  0.00  0.00    -0.341 OA
ATOM     16  C   UNL     1      41.807  22.175  18.981  0.00  0.00    +0.515 C 
ATOM     17  O   UNL     1      42.210  23.322  19.007  0.00  0.00    -0.446 OA
ENDBRANCH  10  11
ENDBRANCH   9  10
TORSDOF 2
ENDMDL
MODEL 8
REMARK VINA RESULT:      -5.2     20.290     22.336
REMARK  Name = ZINC33831303
REMARK  5 active torsions:
REMARK  status: ('A' for Active; 'I' for Inactive)
REMARK    1  A    between atoms: C1_1  and  C2_2
REMARK    2  A    between atoms: C6_6  and  C19_24
REMARK    3  A    between atoms: C6_6  and  C20_25
REMARK    4  A    between atoms: C11_12  and  C12_14
REMARK    5  A    between atoms: C12_14  and  C13_15
REMARK                            x       y       z     vdW  Elec       q    Type
REMARK                         _______ _______ _______ _____ _____    ______ ____
ROOT
ATOM      1  C   UNL     1      54.580  34.497   3.027  0.00  0.00    +0.028 C 
ATOM      2  C   UNL     1      54.372  33.187   3.790  0.00  0.00    -0.034 C 
ATOM      3  C   UNL     1      53.815  32.126   2.839  0.00  0.00    +0.011 C 
ATOM      4  C   UNL     1      52.389  32.487   2.425  0.00  0.00    +0.003 C 
ATOM      5  C   UNL     1      51.496  32.512   3.661  0.00  0.00    +0.012 C 
ATOM      6  C   UNL     1      51.994  33.536   4.681  0.00  0.00    -0.049 C 
ATOM      7  C   UNL     1      51.665  34.949   4.201  0.00  0.00    +0.022 C 
ATOM      8  C   UNL     1      51.184  33.291   5.976  0.00  0.00    +0.012 C 
ATOM      9  C   UNL     1      55.754  32.709   4.286  0.00  0.00    +0.042 C 
ATOM     18  C   UNL     1      56.299  33.717   5.298  0.00  0.00    +0.031 C 
ATOM     19  C   UNL     1      57.796  33.657   5.628  0.00  0.00    +0.170 C 
ATOM     20  O   UNL     1      57.224  34.700   4.838  0.00  0.00    -0.338 OA
ATOM     21  C   UNL     1      55.365  34.082   6.452  0.00  0.00    +0.057 C 
ATOM     22  C   UNL     1      53.982  34.459   5.916  0.00  0.00    +0.024 C 
ATOM     23  C   UNL     1      53.465  33.352   5.000  0.00  0.00    +0.007 C 
ENDROOT
BRANCH   9  10
ATOM     10  C   UNL     1      56.710  32.618   3.096  0.00  0.00    +0.075 C 
BRANCH  10  11
ATOM     11  C   UNL     1      57.433  31.296   3.132  0.00  0.00    +0.121 C 
ATOM     12  C   UNL     1      57.468  30.527   2.046  0.00  0.00    -0.247 C 
ATOM     13  C   UNL     1      56.925  30.854   0.663  0.00  0.00    +0.073 C 
ATOM     14  C   UNL     1      57.280  29.596  -0.160  0.00  0.00    +0.251 C 
ATOM     15  O   UNL     1      58.288  28.928   0.617  0.00  0.00    -0.341 OA
ATOM     16  C   UNL     1      58.047  29.175   1.922  0.00  0.00    +0.515 C 
ATOM     17  O   UNL     1      58.269  28.410   2.840  0.00  0.00    -0.446 OA
ENDBRANCH  10  11
ENDBRANCH   9  10
TORSDOF 2
ENDMDL
MODEL 9
REMARK VINA RESULT:      -5.1      3.735      7.201
REMARK  Name = ZINC33831303
REMARK  5 active torsions:
REMARK  status: ('A' for Active; 'I' for Inactive)
REMARK    1  A    between atoms: C1_1  and  C2_2
REMARK    2  A    between atoms: C6_6  and  C19_24
REMARK    3  A    between atoms: C6_6  and  C20_25
REMARK    4  A    between atoms: C11_12  and  C12_14
REMARK    5  A    between atoms: C12_14  and  C13_15
REMARK                            x       y       z     vdW  Elec       q    Type
REMARK                         _______ _______ _______ _____ _____    ______ ____
ROOT
ATOM      1  C   UNL     1      47.788  14.753  20.169  0.00  0.00    +0.028 C 
ATOM      2  C   UNL     1      46.942  15.146  18.957  0.00  0.00    -0.034 C 
ATOM      3  C   UNL     1      45.470  14.840  19.242  0.00  0.00    +0.011 C 
ATOM      4  C   UNL     1      45.251  13.329  19.311  0.00  0.00    +0.003 C 
ATOM      5  C   UNL     1      45.598  12.707  17.963  0.00  0.00    +0.012 C 
ATOM      6  C   UNL     1      47.053  12.982  17.586  0.00  0.00    -0.049 C 
ATOM      7  C   UNL     1      47.982  12.107  18.426  0.00  0.00    +0.022 C 
ATOM      8  C   UNL     1      47.214  12.540  16.112  0.00  0.00    +0.012 C 
ATOM      9  C   UNL     1      47.085  16.670  18.758  0.00  0.00    +0.042 C 
ATOM     18  C   UNL     1      48.535  16.995  18.396  0.00  0.00    +0.031 C 
ATOM     19  C   UNL     1      48.994  18.452  18.531  0.00  0.00    +0.170 C 
ATOM     20  O   UNL     1      49.408  17.428  19.437  0.00  0.00    -0.338 OA
ATOM     21  C   UNL     1      49.130  16.202  17.232  0.00  0.00    +0.057 C 
ATOM     22  C   UNL     1      48.881  14.704  17.428  0.00  0.00    +0.024 C 
ATOM     23  C   UNL     1      47.395  14.457  17.678  0.00  0.00    +0.007 C 
ENDROOT
BRANCH   9  10
ATOM     10  C   UNL     1      46.717  17.382  20.061  0.00  0.00    +0.075 C 
BRANCH  10  11
ATOM     11  C   UNL     1      45.556  18.312  19.815  0.00  0.00    +0.121 C 
ATOM     12  C   UNL     1      44.436  18.180  20.522  0.00  0.00    -0.247 C 
ATOM     13  C   UNL     1      44.178  17.223  21.677  0.00  0.00    +0.073 C 
ATOM     14  C   UNL     1      42.728  17.554  22.090  0.00  0.00    +0.251 C 
ATOM     15  O   UNL     1      42.470  18.842  21.506  0.00  0.00    -0.341 OA
ATOM     16  C   UNL     1      43.178  18.934  20.361  0.00  0.00    +0.515 C 
ATOM     17  O   UNL     1      42.834  19.538  19.363  0.00  0.00    -0.446 OA
ENDBRANCH  10  11
ENDBRANCH   9  10
TORSDOF 2
ENDMDL
