MODEL 1
REMARK VINA RESULT:      -6.6      0.000      0.000
REMARK  Name = ZINC95486066
REMARK  6 active torsions:
REMARK  status: ('A' for Active; 'I' for Inactive)
REMARK    1  A    between atoms: C1_1  and  C2_2
REMARK    2  A    between atoms: C2_2  and  C4_4
REMARK    3  A    between atoms: C17_21  and  O5_31
REMARK    4  A    between atoms: C18_22  and  O4_29
REMARK    5  A    between atoms: O4_29  and  C23_30
REMARK    6  A    between atoms: O5_31  and  C24_32
REMARK                            x       y       z     vdW  Elec       q    Type
REMARK                         _______ _______ _______ _____ _____    ______ ____
ROOT
ATOM      3  C   UNL     1      50.557  17.444  17.239  0.00  0.00    +0.293 C 
ATOM      4  C   UNL     1      49.311  16.616  17.414  0.00  0.00    -0.059 C 
ATOM      5  C   UNL     1      48.332  17.041  18.207  0.00  0.00    +0.066 C 
ATOM      6  C   UNL     1      48.489  18.350  18.874  0.00  0.00    -0.178 A 
ATOM      7  C   UNL     1      49.497  19.216  18.421  0.00  0.00    +0.209 A 
ATOM      8  C   UNL     1      49.689  20.448  19.031  0.00  0.00    -0.044 A 
ATOM      9  C   UNL     1      48.878  20.835  20.075  0.00  0.00    +0.161 A 
ATOM     10  C   UNL     1      47.854  19.992  20.519  0.00  0.00    -0.280 A 
ATOM     11  C   UNL     1      46.982  20.390  21.633  0.00  0.00    +0.421 C 
ATOM     12  O   UNL     1      47.248  21.344  22.334  0.00  0.00    -0.440 OA
ATOM     13  C   UNL     1      45.754  19.563  21.876  0.00  0.00    +0.009 C 
ATOM     14  C   UNL     1      44.642  19.989  20.935  0.00  0.00    -0.155 A 
ATOM     15  C   UNL     1      44.463  21.338  20.679  0.00  0.00    +0.007 A 
ATOM     16  C   UNL     1      43.458  21.762  19.828  0.00  0.00    +0.076 A 
ATOM     19  C   UNL     1      42.622  20.826  19.226  0.00  0.00    +0.145 A 
ATOM     22  C   UNL     1      42.800  19.478  19.482  0.00  0.00    -0.054 A 
ATOM     23  C   UNL     1      43.812  19.055  20.336  0.00  0.00    +0.156 A 
ATOM     24  O   UNL     1      43.958  17.722  20.557  0.00  0.00    -0.298 OA
ATOM     25  C   UNL     1      44.759  17.302  21.664  0.00  0.00    +0.296 C 
ATOM     26  C   UNL     1      46.082  18.086  21.617  0.00  0.00    +0.172 C 
ATOM     27  O   UNL     1      46.634  17.940  20.307  0.00  0.00    -0.288 OA
ATOM     28  C   UNL     1      47.643  18.743  19.909  0.00  0.00    +0.233 A 
ATOM     29  O   UNL     1      50.259  18.834  17.365  0.00  0.00    -0.293 OA
ENDROOT
BRANCH   3   2
ATOM      1  C   UNL     1      52.613  18.043  18.730  0.00  0.00    +0.076 C 
ATOM      2  C   UNL     1      51.564  17.055  18.290  0.00  0.00    -0.157 C 
ATOM     30  C   UNL     1      51.528  15.857  18.820  0.00  0.00    +0.045 C 
ENDBRANCH   3   2
BRANCH  16  17
ATOM     17  O   UNL     1      43.287  23.089  19.581  0.00  0.00    -0.303 OA
ATOM     18  C   UNL     1      44.460  23.850  19.287  0.00  0.00    +0.237 C 
ENDBRANCH  16  17
BRANCH  19  20
ATOM     20  O   UNL     1      41.631  21.236  18.389  0.00  0.00    -0.299 OA
ATOM     21  C   UNL     1      40.304  21.265  18.919  0.00  0.00    +0.244 C 
ENDBRANCH  19  20
TORSDOF 3
ENDMDL
MODEL 2
REMARK VINA RESULT:      -6.3      1.352      1.735
REMARK  Name = ZINC95486066
REMARK  6 active torsions:
REMARK  status: ('A' for Active; 'I' for Inactive)
REMARK    1  A    between atoms: C1_1  and  C2_2
REMARK    2  A    between atoms: C2_2  and  C4_4
REMARK    3  A    between atoms: C17_21  and  O5_31
REMARK    4  A    between atoms: C18_22  and  O4_29
REMARK    5  A    between atoms: O4_29  and  C23_30
REMARK    6  A    between atoms: O5_31  and  C24_32
REMARK                            x       y       z     vdW  Elec       q    Type
REMARK                         _______ _______ _______ _____ _____    ______ ____
ROOT
ATOM      3  C   UNL     1      48.381  15.605  17.214  0.00  0.00    +0.293 C 
ATOM      4  C   UNL     1      46.983  15.207  17.605  0.00  0.00    -0.059 C 
ATOM      5  C   UNL     1      46.260  15.997  18.394  0.00  0.00    +0.066 C 
ATOM      6  C   UNL     1      46.852  17.275  18.838  0.00  0.00    -0.178 A 
ATOM      7  C   UNL     1      48.002  17.743  18.185  0.00  0.00    +0.209 A 
ATOM      8  C   UNL     1      48.600  18.931  18.583  0.00  0.00    -0.044 A 
ATOM      9  C   UNL     1      48.055  19.667  19.613  0.00  0.00    +0.161 A 
ATOM     10  C   UNL     1      46.894  19.224  20.254  0.00  0.00    -0.280 A 
ATOM     11  C   UNL     1      46.303  19.997  21.356  0.00  0.00    +0.421 C 
ATOM     12  O   UNL     1      46.904  20.911  21.880  0.00  0.00    -0.440 OA
ATOM     13  C   UNL     1      44.929  19.603  21.812  0.00  0.00    +0.009 C 
ATOM     14  C   UNL     1      43.880  20.215  20.902  0.00  0.00    -0.155 A 
ATOM     15  C   UNL     1      44.058  21.514  20.456  0.00  0.00    +0.007 A 
ATOM     16  C   UNL     1      43.121  22.103  19.627  0.00  0.00    +0.076 A 
ATOM     19  C   UNL     1      41.993  21.387  19.239  0.00  0.00    +0.145 A 
ATOM     22  C   UNL     1      41.815  20.089  19.684  0.00  0.00    -0.054 A 
ATOM     23  C   UNL     1      42.759  19.499  20.517  0.00  0.00    +0.156 A 
ATOM     24  O   UNL     1      42.551  18.219  20.928  0.00  0.00    -0.298 OA
ATOM     25  C   UNL     1      43.324  17.726  22.024  0.00  0.00    +0.296 C 
ATOM     26  C   UNL     1      44.799  18.075  21.760  0.00  0.00    +0.172 C 
ATOM     27  O   UNL     1      45.134  17.611  20.451  0.00  0.00    -0.288 OA
ATOM     28  C   UNL     1      46.275  18.026  19.861  0.00  0.00    +0.233 A 
ATOM     29  O   UNL     1      48.500  17.025  17.147  0.00  0.00    -0.293 OA
ENDROOT
BRANCH   3   2
ATOM      1  C   UNL     1      50.742  15.651  18.326  0.00  0.00    +0.076 C 
ATOM      2  C   UNL     1      49.353  15.072  18.235  0.00  0.00    -0.157 C 
ATOM     30  C   UNL     1      48.991  14.106  19.042  0.00  0.00    +0.045 C 
ENDBRANCH   3   2
BRANCH  16  17
ATOM     17  O   UNL     1      43.300  23.380  19.192  0.00  0.00    -0.303 OA
ATOM     18  C   UNL     1      44.627  23.907  19.257  0.00  0.00    +0.237 C 
ENDBRANCH  16  17
BRANCH  19  20
ATOM     20  O   UNL     1      41.066  21.961  18.424  0.00  0.00    -0.299 OA
ATOM     21  C   UNL     1      39.723  21.487  18.535  0.00  0.00    +0.244 C 
ENDBRANCH  19  20
TORSDOF 3
ENDMDL
MODEL 3
REMARK VINA RESULT:      -6.2      2.634      8.050
REMARK  Name = ZINC95486066
REMARK  6 active torsions:
REMARK  status: ('A' for Active; 'I' for Inactive)
REMARK    1  A    between atoms: C1_1  and  C2_2
REMARK    2  A    between atoms: C2_2  and  C4_4
REMARK    3  A    between atoms: C17_21  and  O5_31
REMARK    4  A    between atoms: C18_22  and  O4_29
REMARK    5  A    between atoms: O4_29  and  C23_30
REMARK    6  A    between atoms: O5_31  and  C24_32
REMARK                            x       y       z     vdW  Elec       q    Type
REMARK                         _______ _______ _______ _____ _____    ______ ____
ROOT
ATOM      3  C   UNL     1      45.308  21.394  20.174  0.00  0.00    +0.293 C 
ATOM      4  C   UNL     1      45.691  21.060  18.757  0.00  0.00    -0.059 C 
ATOM      5  C   UNL     1      46.956  20.781  18.455  0.00  0.00    +0.066 C 
ATOM      6  C   UNL     1      47.952  20.777  19.547  0.00  0.00    -0.178 A 
ATOM      7  C   UNL     1      47.492  20.763  20.872  0.00  0.00    +0.209 A 
ATOM      8  C   UNL     1      48.394  20.776  21.927  0.00  0.00    -0.044 A 
ATOM      9  C   UNL     1      49.749  20.785  21.677  0.00  0.00    +0.161 A 
ATOM     10  C   UNL     1      50.220  20.772  20.360  0.00  0.00    -0.280 A 
ATOM     11  C   UNL     1      51.662  20.784  20.077  0.00  0.00    +0.421 C 
ATOM     12  O   UNL     1      52.475  21.017  20.946  0.00  0.00    -0.440 OA
ATOM     13  C   UNL     1      52.089  20.504  18.666  0.00  0.00    +0.009 C 
ATOM     14  C   UNL     1      52.114  19.008  18.413  0.00  0.00    -0.155 A 
ATOM     15  C   UNL     1      52.598  18.171  19.405  0.00  0.00    +0.007 A 
ATOM     16  C   UNL     1      52.637  16.803  19.207  0.00  0.00    +0.076 A 
ATOM     19  C   UNL     1      52.187  16.264  18.006  0.00  0.00    +0.145 A 
ATOM     22  C   UNL     1      51.704  17.100  17.015  0.00  0.00    -0.054 A 
ATOM     23  C   UNL     1      51.665  18.475  17.216  0.00  0.00    +0.156 A 
ATOM     24  O   UNL     1      51.177  19.262  16.221  0.00  0.00    -0.298 OA
ATOM     25  C   UNL     1      51.433  20.667  16.280  0.00  0.00    +0.296 C 
ATOM     26  C   UNL     1      51.088  21.152  17.699  0.00  0.00    +0.172 C 
ATOM     27  O   UNL     1      49.767  20.706  18.008  0.00  0.00    -0.288 OA
ATOM     28  C   UNL     1      49.320  20.755  19.281  0.00  0.00    +0.233 A 
ATOM     29  O   UNL     1      46.156  20.714  21.099  0.00  0.00    -0.293 OA
ENDROOT
BRANCH   3   2
ATOM      1  C   UNL     1      44.788  23.836  19.414  0.00  0.00    +0.076 C 
ATOM      2  C   UNL     1      45.433  22.880  20.385  0.00  0.00    -0.157 C 
ATOM     30  C   UNL     1      46.102  23.342  21.412  0.00  0.00    +0.045 C 
ENDBRANCH   3   2
BRANCH  16  17
ATOM     17  O   UNL     1      53.113  15.985  20.185  0.00  0.00    -0.303 OA
ATOM     18  C   UNL     1      54.532  15.901  20.327  0.00  0.00    +0.237 C 
ENDBRANCH  16  17
BRANCH  19  20
ATOM     20  O   UNL     1      52.224  14.919  17.805  0.00  0.00    -0.299 OA
ATOM     21  C   UNL     1      51.186  14.355  17.000  0.00  0.00    +0.244 C 
ENDBRANCH  19  20
TORSDOF 3
ENDMDL
MODEL 4
REMARK VINA RESULT:      -5.5      2.992      7.871
REMARK  Name = ZINC95486066
REMARK  6 active torsions:
REMARK  status: ('A' for Active; 'I' for Inactive)
REMARK    1  A    between atoms: C1_1  and  C2_2
REMARK    2  A    between atoms: C2_2  and  C4_4
REMARK    3  A    between atoms: C17_21  and  O5_31
REMARK    4  A    between atoms: C18_22  and  O4_29
REMARK    5  A    between atoms: O4_29  and  C23_30
REMARK    6  A    between atoms: O5_31  and  C24_32
REMARK                            x       y       z     vdW  Elec       q    Type
REMARK                         _______ _______ _______ _____ _____    ______ ____
ROOT
ATOM      3  C   UNL     1      43.149  20.056  20.834  0.00  0.00    +0.293 C 
ATOM      4  C   UNL     1      43.260  18.880  21.768  0.00  0.00    -0.059 C 
ATOM      5  C   UNL     1      43.995  17.825  21.428  0.00  0.00    +0.066 C 
ATOM      6  C   UNL     1      44.717  17.859  20.140  0.00  0.00    -0.178 A 
ATOM      7  C   UNL     1      44.847  19.090  19.478  0.00  0.00    +0.209 A 
ATOM      8  C   UNL     1      45.503  19.163  18.257  0.00  0.00    -0.044 A 
ATOM      9  C   UNL     1      46.045  18.027  17.696  0.00  0.00    +0.161 A 
ATOM     10  C   UNL     1      45.944  16.799  18.358  0.00  0.00    -0.280 A 
ATOM     11  C   UNL     1      46.515  15.579  17.771  0.00  0.00    +0.421 C 
ATOM     12  O   UNL     1      46.896  15.550  16.619  0.00  0.00    -0.440 OA
ATOM     13  C   UNL     1      46.600  14.367  18.650  0.00  0.00    +0.009 C 
ATOM     14  C   UNL     1      47.833  14.445  19.532  0.00  0.00    -0.155 A 
ATOM     15  C   UNL     1      49.013  14.924  18.989  0.00  0.00    +0.007 A 
ATOM     16  C   UNL     1      50.156  15.008  19.764  0.00  0.00    +0.076 A 
ATOM     19  C   UNL     1      50.119  14.607  21.096  0.00  0.00    +0.145 A 
ATOM     22  C   UNL     1      48.940  14.128  21.639  0.00  0.00    -0.054 A 
ATOM     23  C   UNL     1      47.792  14.047  20.858  0.00  0.00    +0.156 A 
ATOM     24  O   UNL     1      46.652  13.576  21.430  0.00  0.00    -0.298 OA
ATOM     25  C   UNL     1      45.578  13.183  20.574  0.00  0.00    +0.296 C 
ATOM     26  C   UNL     1      45.355  14.305  19.546  0.00  0.00    +0.172 C 
ATOM     27  O   UNL     1      45.217  15.535  20.259  0.00  0.00    -0.288 OA
ATOM     28  C   UNL     1      45.287  16.709  19.597  0.00  0.00    +0.233 A 
ATOM     29  O   UNL     1      44.342  20.203  20.066  0.00  0.00    -0.293 OA
ENDROOT
BRANCH   3   2
ATOM      1  C   UNL     1      41.975  20.494  18.545  0.00  0.00    +0.076 C 
ATOM      2  C   UNL     1      41.982  19.844  19.905  0.00  0.00    -0.157 C 
ATOM     30  C   UNL     1      40.974  19.096  20.279  0.00  0.00    +0.045 C 
ENDBRANCH   3   2
BRANCH  16  17
ATOM     17  O   UNL     1      51.313  15.480  19.225  0.00  0.00    -0.303 OA
ATOM     18  C   UNL     1      51.397  16.888  19.001  0.00  0.00    +0.237 C 
ENDBRANCH  16  17
BRANCH  19  20
ATOM     20  O   UNL     1      51.240  14.686  21.863  0.00  0.00    -0.299 OA
ATOM     21  C   UNL     1      51.945  13.467  22.109  0.00  0.00    +0.244 C 
ENDBRANCH  19  20
TORSDOF 3
ENDMDL
MODEL 5
REMARK VINA RESULT:      -5.3      3.205      7.527
REMARK  Name = ZINC95486066
REMARK  6 active torsions:
REMARK  status: ('A' for Active; 'I' for Inactive)
REMARK    1  A    between atoms: C1_1  and  C2_2
REMARK    2  A    between atoms: C2_2  and  C4_4
REMARK    3  A    between atoms: C17_21  and  O5_31
REMARK    4  A    between atoms: C18_22  and  O4_29
REMARK    5  A    between atoms: O4_29  and  C23_30
REMARK    6  A    between atoms: O5_31  and  C24_32
REMARK                            x       y       z     vdW  Elec       q    Type
REMARK                         _______ _______ _______ _____ _____    ______ ____
ROOT
ATOM      3  C   UNL     1      45.234  21.323  19.321  0.00  0.00    +0.293 C 
ATOM      4  C   UNL     1      46.611  21.080  18.762  0.00  0.00    -0.059 C 
ATOM      5  C   UNL     1      47.147  19.864  18.814  0.00  0.00    +0.066 C 
ATOM      6  C   UNL     1      46.346  18.769  19.398  0.00  0.00    -0.178 A 
ATOM      7  C   UNL     1      44.971  18.975  19.591  0.00  0.00    +0.209 A 
ATOM      8  C   UNL     1      44.186  17.978  20.153  0.00  0.00    -0.044 A 
ATOM      9  C   UNL     1      44.750  16.772  20.508  0.00  0.00    +0.161 A 
ATOM     10  C   UNL     1      46.114  16.545  20.297  0.00  0.00    -0.280 A 
ATOM     11  C   UNL     1      46.730  15.265  20.673  0.00  0.00    +0.421 C 
ATOM     12  O   UNL     1      46.142  14.458  21.361  0.00  0.00    -0.440 OA
ATOM     13  C   UNL     1      48.122  15.001  20.178  0.00  0.00    +0.009 C 
ATOM     14  C   UNL     1      48.082  14.491  18.750  0.00  0.00    -0.155 A 
ATOM     15  C   UNL     1      47.093  13.590  18.389  0.00  0.00    +0.007 A 
ATOM     16  C   UNL     1      47.029  13.104  17.095  0.00  0.00    +0.076 A 
ATOM     19  C   UNL     1      47.962  13.522  16.152  0.00  0.00    +0.145 A 
ATOM     22  C   UNL     1      48.949  14.421  16.512  0.00  0.00    -0.054 A 
ATOM     23  C   UNL     1      49.012  14.910  17.812  0.00  0.00    +0.156 A 
ATOM     24  O   UNL     1      49.993  15.797  18.125  0.00  0.00    -0.298 OA
ATOM     25  C   UNL     1      50.267  16.046  19.505  0.00  0.00    +0.296 C 
ATOM     26  C   UNL     1      48.927  16.307  20.215  0.00  0.00    +0.172 C 
ATOM     27  O   UNL     1      48.231  17.318  19.484  0.00  0.00    -0.288 OA
ATOM     28  C   UNL     1      46.922  17.543  19.725  0.00  0.00    +0.233 A 
ATOM     29  O   UNL     1      44.427  20.153  19.198  0.00  0.00    -0.293 OA
ENDROOT
BRANCH   3   2
ATOM      1  C   UNL     1      46.628  22.294  21.302  0.00  0.00    +0.076 C 
ATOM      2  C   UNL     1      45.348  21.698  20.776  0.00  0.00    -0.157 C 
ATOM     30  C   UNL     1      44.335  21.504  21.584  0.00  0.00    +0.045 C 
ENDBRANCH   3   2
BRANCH  16  17
ATOM     17  O   UNL     1      46.055  12.219  16.747  0.00  0.00    -0.303 OA
ATOM     18  C   UNL     1      46.364  10.830  16.877  0.00  0.00    +0.237 C 
ENDBRANCH  16  17
BRANCH  19  20
ATOM     20  O   UNL     1      47.904  13.047  14.878  0.00  0.00    -0.299 OA
ATOM     21  C   UNL     1      49.114  12.525  14.325  0.00  0.00    +0.244 C 
ENDBRANCH  19  20
TORSDOF 3
ENDMDL
MODEL 6
REMARK VINA RESULT:      -5.2      4.554      8.347
REMARK  Name = ZINC95486066
REMARK  6 active torsions:
REMARK  status: ('A' for Active; 'I' for Inactive)
REMARK    1  A    between atoms: C1_1  and  C2_2
REMARK    2  A    between atoms: C2_2  and  C4_4
REMARK    3  A    between atoms: C17_21  and  O5_31
REMARK    4  A    between atoms: C18_22  and  O4_29
REMARK    5  A    between atoms: O4_29  and  C23_30
REMARK    6  A    between atoms: O5_31  and  C24_32
REMARK                            x       y       z     vdW  Elec       q    Type
REMARK                         _______ _______ _______ _____ _____    ______ ____
ROOT
ATOM      3  C   UNL     1      51.509  20.267  18.529  0.00  0.00    +0.293 C 
ATOM      4  C   UNL     1      52.605  19.246  18.371  0.00  0.00    -0.059 C 
ATOM      5  C   UNL     1      52.310  17.950  18.329  0.00  0.00    +0.066 C 
ATOM      6  C   UNL     1      50.889  17.552  18.407  0.00  0.00    -0.178 A 
ATOM      7  C   UNL     1      49.907  18.537  18.217  0.00  0.00    +0.209 A 
ATOM      8  C   UNL     1      48.561  18.208  18.299  0.00  0.00    -0.044 A 
ATOM      9  C   UNL     1      48.182  16.908  18.550  0.00  0.00    +0.161 A 
ATOM     10  C   UNL     1      49.151  15.913  18.716  0.00  0.00    -0.280 A 
ATOM     11  C   UNL     1      48.762  14.522  18.987  0.00  0.00    +0.421 C 
ATOM     12  O   UNL     1      47.622  14.231  19.284  0.00  0.00    -0.440 OA
ATOM     13  C   UNL     1      49.833  13.476  18.889  0.00  0.00    +0.009 C 
ATOM     14  C   UNL     1      50.039  13.071  17.441  0.00  0.00    -0.155 A 
ATOM     15  C   UNL     1      48.931  12.929  16.623  0.00  0.00    +0.007 A 
ATOM     16  C   UNL     1      49.082  12.559  15.299  0.00  0.00    +0.076 A 
ATOM     19  C   UNL     1      50.355  12.329  14.786  0.00  0.00    +0.145 A 
ATOM     22  C   UNL     1      51.463  12.472  15.603  0.00  0.00    -0.054 A 
ATOM     23  C   UNL     1      51.308  12.845  16.934  0.00  0.00    +0.156 A 
ATOM     24  O   UNL     1      52.421  12.980  17.702  0.00  0.00    -0.298 OA
ATOM     25  C   UNL     1      52.262  13.035  19.121  0.00  0.00    +0.296 C 
ATOM     26  C   UNL     1      51.148  14.050  19.434  0.00  0.00    +0.172 C 
ATOM     27  O   UNL     1      51.458  15.267  18.754  0.00  0.00    -0.288 OA
ATOM     28  C   UNL     1      50.518  16.228  18.632  0.00  0.00    +0.233 A 
ATOM     29  O   UNL     1      50.299  19.803  17.931  0.00  0.00    -0.293 OA
ENDROOT
BRANCH   3   2
ATOM      1  C   UNL     1      49.892  20.872  20.486  0.00  0.00    +0.076 C 
ATOM      2  C   UNL     1      51.273  20.519  19.995  0.00  0.00    -0.157 C 
ATOM     30  C   UNL     1      52.268  20.433  20.843  0.00  0.00    +0.045 C 
ENDBRANCH   3   2
BRANCH  16  17
ATOM     17  O   UNL     1      47.990  12.421  14.499  0.00  0.00    -0.303 OA
ATOM     18  C   UNL     1      47.038  11.422  14.869  0.00  0.00    +0.237 C 
ENDBRANCH  16  17
BRANCH  19  20
ATOM     20  O   UNL     1      50.511  11.965  13.484  0.00  0.00    -0.299 OA
ATOM     21  C   UNL     1      50.946  12.978  12.575  0.00  0.00    +0.244 C 
ENDBRANCH  19  20
TORSDOF 3
ENDMDL
MODEL 7
REMARK VINA RESULT:      -4.9      3.297      5.000
REMARK  Name = ZINC95486066
REMARK  6 active torsions:
REMARK  status: ('A' for Active; 'I' for Inactive)
REMARK    1  A    between atoms: C1_1  and  C2_2
REMARK    2  A    between atoms: C2_2  and  C4_4
REMARK    3  A    between atoms: C17_21  and  O5_31
REMARK    4  A    between atoms: C18_22  and  O4_29
REMARK    5  A    between atoms: O4_29  and  C23_30
REMARK    6  A    between atoms: O5_31  and  C24_32
REMARK                            x       y       z     vdW  Elec       q    Type
REMARK                         _______ _______ _______ _____ _____    ______ ____
ROOT
ATOM      3  C   UNL     1      49.182  12.552  14.891  0.00  0.00    +0.293 C 
ATOM      4  C   UNL     1      47.737  12.880  15.163  0.00  0.00    -0.059 C 
ATOM      5  C   UNL     1      47.411  13.652  16.195  0.00  0.00    +0.066 C 
ATOM      6  C   UNL     1      48.498  14.199  17.034  0.00  0.00    -0.178 A 
ATOM      7  C   UNL     1      49.813  14.140  16.546  0.00  0.00    +0.209 A 
ATOM      8  C   UNL     1      50.865  14.626  17.309  0.00  0.00    -0.044 A 
ATOM      9  C   UNL     1      50.621  15.186  18.544  0.00  0.00    +0.161 A 
ATOM     10  C   UNL     1      49.312  15.274  19.030  0.00  0.00    -0.280 A 
ATOM     11  C   UNL     1      49.037  15.867  20.346  0.00  0.00    +0.421 C 
ATOM     12  O   UNL     1      49.929  16.099  21.134  0.00  0.00    -0.440 OA
ATOM     13  C   UNL     1      47.605  16.165  20.680  0.00  0.00    +0.009 C 
ATOM     14  C   UNL     1      47.188  17.488  20.066  0.00  0.00    -0.155 A 
ATOM     15  C   UNL     1      48.083  18.546  20.087  0.00  0.00    +0.007 A 
ATOM     16  C   UNL     1      47.735  19.767  19.538  0.00  0.00    +0.076 A 
ATOM     19  C   UNL     1      46.480  19.934  18.961  0.00  0.00    +0.145 A 
ATOM     22  C   UNL     1      45.586  18.877  18.940  0.00  0.00    -0.054 A 
ATOM     23  C   UNL     1      45.939  17.651  19.491  0.00  0.00    +0.156 A 
ATOM     24  O   UNL     1      45.035  16.636  19.445  0.00  0.00    -0.298 OA
ATOM     25  C   UNL     1      45.250  15.499  20.283  0.00  0.00    +0.296 C 
ATOM     26  C   UNL     1      46.712  15.053  20.111  0.00  0.00    +0.172 C 
ATOM     27  O   UNL     1      46.966  14.904  18.713  0.00  0.00    -0.288 OA
ATOM     28  C   UNL     1      48.235  14.790  18.268  0.00  0.00    +0.233 A 
ATOM     29  O   UNL     1      50.028  13.621  15.311  0.00  0.00    -0.293 OA
ENDROOT
BRANCH   3   2
ATOM      1  C   UNL     1      48.480  10.428  16.234  0.00  0.00    +0.076 C 
ATOM      2  C   UNL     1      49.556  11.299  15.639  0.00  0.00    -0.157 C 
ATOM     30  C   UNL     1      50.817  10.967  15.771  0.00  0.00    +0.045 C 
ENDBRANCH   3   2
BRANCH  16  17
ATOM     17  O   UNL     1      48.618  20.802  19.561  0.00  0.00    -0.303 OA
ATOM     18  C   UNL     1      49.893  20.582  18.954  0.00  0.00    +0.237 C 
ENDBRANCH  16  17
BRANCH  19  20
ATOM     20  O   UNL     1      46.132  21.132  18.420  0.00  0.00    -0.299 OA
ATOM     21  C   UNL     1      45.243  21.953  19.180  0.00  0.00    +0.244 C 
ENDBRANCH  19  20
TORSDOF 3
ENDMDL
MODEL 8
REMARK VINA RESULT:      -4.7      2.446      7.351
REMARK  Name = ZINC95486066
REMARK  6 active torsions:
REMARK  status: ('A' for Active; 'I' for Inactive)
REMARK    1  A    between atoms: C1_1  and  C2_2
REMARK    2  A    between atoms: C2_2  and  C4_4
REMARK    3  A    between atoms: C17_21  and  O5_31
REMARK    4  A    between atoms: C18_22  and  O4_29
REMARK    5  A    between atoms: O4_29  and  C23_30
REMARK    6  A    between atoms: O5_31  and  C24_32
REMARK                            x       y       z     vdW  Elec       q    Type
REMARK                         _______ _______ _______ _____ _____    ______ ____
ROOT
ATOM      3  C   UNL     1      44.365  21.594  20.012  0.00  0.00    +0.293 C 
ATOM      4  C   UNL     1      45.277  21.601  18.814  0.00  0.00    -0.059 C 
ATOM      5  C   UNL     1      46.323  20.781  18.766  0.00  0.00    +0.066 C 
ATOM      6  C   UNL     1      46.537  19.851  19.894  0.00  0.00    -0.178 A 
ATOM      7  C   UNL     1      45.489  19.654  20.807  0.00  0.00    +0.209 A 
ATOM      8  C   UNL     1      45.655  18.803  21.891  0.00  0.00    -0.044 A 
ATOM      9  C   UNL     1      46.846  18.131  22.065  0.00  0.00    +0.161 A 
ATOM     10  C   UNL     1      47.887  18.299  21.148  0.00  0.00    -0.280 A 
ATOM     11  C   UNL     1      49.164  17.592  21.322  0.00  0.00    +0.421 C 
ATOM     12  O   UNL     1      49.433  17.019  22.357  0.00  0.00    -0.440 OA
ATOM     13  C   UNL     1      50.126  17.614  20.171  0.00  0.00    +0.009 C 
ATOM     14  C   UNL     1      49.749  16.554  19.153  0.00  0.00    -0.155 A 
ATOM     15  C   UNL     1      49.321  15.317  19.604  0.00  0.00    +0.007 A 
ATOM     16  C   UNL     1      48.970  14.327  18.703  0.00  0.00    +0.076 A 
ATOM     19  C   UNL     1      49.049  14.576  17.336  0.00  0.00    +0.145 A 
ATOM     22  C   UNL     1      49.477  15.813  16.885  0.00  0.00    -0.054 A 
ATOM     23  C   UNL     1      49.827  16.806  17.793  0.00  0.00    +0.156 A 
ATOM     24  O   UNL     1      50.236  18.009  17.310  0.00  0.00    -0.298 OA
ATOM     25  C   UNL     1      50.900  18.906  18.202  0.00  0.00    +0.296 C 
ATOM     26  C   UNL     1      50.071  18.991  19.495  0.00  0.00    +0.172 C 
ATOM     27  O   UNL     1      48.722  19.294  19.134  0.00  0.00    -0.288 OA
ATOM     28  C   UNL     1      47.735  19.155  20.044  0.00  0.00    +0.233 A 
ATOM     29  O   UNL     1      44.311  20.293  20.596  0.00  0.00    -0.293 OA
ENDROOT
BRANCH   3   2
ATOM      1  C   UNL     1      44.722  22.284  22.504  0.00  0.00    +0.076 C 
ATOM      2  C   UNL     1      44.878  22.576  21.033  0.00  0.00    -0.157 C 
ATOM     30  C   UNL     1      45.458  23.684  20.643  0.00  0.00    +0.045 C 
ENDBRANCH   3   2
BRANCH  16  17
ATOM     17  O   UNL     1      48.550  13.113  19.152  0.00  0.00    -0.303 OA
ATOM     18  C   UNL     1      49.526  12.281  19.782  0.00  0.00    +0.237 C 
ENDBRANCH  16  17
BRANCH  19  20
ATOM     20  O   UNL     1      48.707  13.607  16.445  0.00  0.00    -0.299 OA
ATOM     21  C   UNL     1      47.349  13.586  15.999  0.00  0.00    +0.244 C 
ENDBRANCH  19  20
TORSDOF 3
ENDMDL
MODEL 9
REMARK VINA RESULT:      -4.7      3.608      5.156
REMARK  Name = ZINC95486066
REMARK  6 active torsions:
REMARK  status: ('A' for Active; 'I' for Inactive)
REMARK    1  A    between atoms: C1_1  and  C2_2
REMARK    2  A    between atoms: C2_2  and  C4_4
REMARK    3  A    between atoms: C17_21  and  O5_31
REMARK    4  A    between atoms: C18_22  and  O4_29
REMARK    5  A    between atoms: O4_29  and  C23_30
REMARK    6  A    between atoms: O5_31  and  C24_32
REMARK                            x       y       z     vdW  Elec       q    Type
REMARK                         _______ _______ _______ _____ _____    ______ ____
ROOT
ATOM      3  C   UNL     1      47.702  12.113  15.319  0.00  0.00    +0.293 C 
ATOM      4  C   UNL     1      46.637  11.741  16.317  0.00  0.00    -0.059 C 
ATOM      5  C   UNL     1      46.551  12.390  17.474  0.00  0.00    +0.066 C 
ATOM      6  C   UNL     1      47.499  13.493  17.732  0.00  0.00    -0.178 A 
ATOM      7  C   UNL     1      48.235  14.008  16.654  0.00  0.00    +0.209 A 
ATOM      8  C   UNL     1      49.149  15.033  16.855  0.00  0.00    -0.044 A 
ATOM      9  C   UNL     1      49.325  15.563  18.115  0.00  0.00    +0.161 A 
ATOM     10  C   UNL     1      48.578  15.076  19.192  0.00  0.00    -0.280 A 
ATOM     11  C   UNL     1      48.757  15.630  20.542  0.00  0.00    +0.421 C 
ATOM     12  O   UNL     1      49.687  16.361  20.807  0.00  0.00    -0.440 OA
ATOM     13  C   UNL     1      47.745  15.247  21.582  0.00  0.00    +0.009 C 
ATOM     14  C   UNL     1      46.509  16.118  21.456  0.00  0.00    -0.155 A 
ATOM     15  C   UNL     1      46.666  17.466  21.184  0.00  0.00    +0.007 A 
ATOM     16  C   UNL     1      45.561  18.289  21.063  0.00  0.00    +0.076 A 
ATOM     19  C   UNL     1      44.284  17.759  21.217  0.00  0.00    +0.145 A 
ATOM     22  C   UNL     1      44.126  16.411  21.489  0.00  0.00    -0.054 A 
ATOM     23  C   UNL     1      45.239  15.586  21.608  0.00  0.00    +0.156 A 
ATOM     24  O   UNL     1      45.042  14.267  21.869  0.00  0.00    -0.298 OA
ATOM     25  C   UNL     1      46.156  13.490  22.314  0.00  0.00    +0.296 C 
ATOM     26  C   UNL     1      47.341  13.781  21.376  0.00  0.00    +0.172 C 
ATOM     27  O   UNL     1      46.895  13.591  20.032  0.00  0.00    -0.288 OA
ATOM     28  C   UNL     1      47.646  14.041  19.005  0.00  0.00    +0.233 A 
ATOM     29  O   UNL     1      48.019  13.500  15.414  0.00  0.00    -0.293 OA
ENDROOT
BRANCH   3   2
ATOM      1  C   UNL     1      50.242  11.664  14.922  0.00  0.00    +0.076 C 
ATOM      2  C   UNL     1      48.942  11.300  15.591  0.00  0.00    -0.157 C 
ATOM     30  C   UNL     1      48.888  10.277  16.407  0.00  0.00    +0.045 C 
ENDBRANCH   3   2
BRANCH  16  17
ATOM     17  O   UNL     1      45.722  19.614  20.796  0.00  0.00    -0.303 OA
ATOM     18  C   UNL     1      46.192  20.439  21.863  0.00  0.00    +0.237 C 
ENDBRANCH  16  17
BRANCH  19  20
ATOM     20  O   UNL     1      43.192  18.563  21.101  0.00  0.00    -0.299 OA
ATOM     21  C   UNL     1      42.528  18.933  22.310  0.00  0.00    +0.244 C 
ENDBRANCH  19  20
TORSDOF 3
ENDMDL
