MODEL 1
REMARK VINA RESULT:      -6.8      0.000      0.000
REMARK  Name = ZINC95486126
REMARK  9 active torsions:
REMARK  status: ('A' for Active; 'I' for Inactive)
REMARK    1  A    between atoms: C1_1  and  C2_2
REMARK    2  A    between atoms: C5_6  and  C30_39
REMARK    3  A    between atoms: C8_9  and  C29_38
REMARK    4  A    between atoms: C13_15  and  C25_32
REMARK    5  A    between atoms: C18_22  and  C24_31
REMARK    6  A    between atoms: C20_25  and  O1_30
REMARK    7  A    between atoms: C21_27  and  C22_28
REMARK    8  A    between atoms: C21_27  and  C23_29
REMARK    9  A    between atoms: C27_35  and  C28_37
REMARK                            x       y       z     vdW  Elec       q    Type
REMARK                         _______ _______ _______ _____ _____    ______ ____
ROOT
ATOM      1  C   UNL     1      41.120  19.635  17.801  0.00  0.00    +0.013 C 
ATOM      2  C   UNL     1      41.239  19.995  19.279  0.00  0.00    -0.022 C 
ATOM      3  C   UNL     1      41.645  21.453  19.449  0.00  0.00    +0.007 C 
ATOM      4  C   UNL     1      43.081  21.707  19.010  0.00  0.00    +0.009 C 
ATOM      5  C   UNL     1      44.053  20.804  19.779  0.00  0.00    -0.039 C 
ATOM      6  C   UNL     1      44.073  21.231  21.245  0.00  0.00    +0.022 C 
ATOM      7  C   UNL     1      45.466  21.036  19.221  0.00  0.00    +0.005 C 
ATOM      8  C   UNL     1      46.465  20.102  19.906  0.00  0.00    +0.021 C 
ATOM      9  C   UNL     1      46.112  18.639  19.622  0.00  0.00    +0.007 C 
ATOM     10  C   UNL     1      46.092  18.506  18.090  0.00  0.00    +0.018 C 
ATOM     11  C   UNL     1      44.687  18.389  20.066  0.00  0.00    -0.082 C 
ATOM     12  C   UNL     1      44.365  17.386  20.822  0.00  0.00    -0.060 C 
ATOM     13  C   UNL     1      45.355  16.432  21.423  0.00  0.00    +0.050 C 
ATOM     14  C   UNL     1      46.584  16.305  20.536  0.00  0.00    +0.004 C 
ATOM     15  C   UNL     1      46.312  15.470  19.293  0.00  0.00    +0.014 C 
ATOM     16  C   UNL     1      45.669  14.140  19.684  0.00  0.00    -0.016 C 
ATOM     17  C   UNL     1      46.497  13.396  20.729  0.00  0.00    +0.018 C 
ATOM     18  C   UNL     1      45.452  13.259  18.456  0.00  0.00    -0.017 C 
ATOM     19  C   UNL     1      46.728  13.055  17.659  0.00  0.00    +0.162 C 
ATOM     22  C   UNL     1      47.399  14.381  17.308  0.00  0.00    -0.043 C 
ATOM     23  C   UNL     1      48.753  14.069  16.650  0.00  0.00    +0.025 C 
ATOM     24  C   UNL     1      46.526  15.118  16.289  0.00  0.00    +0.029 C 
ATOM     25  C   UNL     1      47.629  15.230  18.556  0.00  0.00    +0.019 C 
ATOM     26  C   UNL     1      48.283  16.556  18.180  0.00  0.00    +0.001 C 
ATOM     27  C   UNL     1      48.383  17.541  19.329  0.00  0.00    +0.011 C 
ATOM     28  C   UNL     1      47.133  17.689  20.194  0.00  0.00    -0.026 C 
ATOM     29  C   UNL     1      47.641  18.274  21.544  0.00  0.00    +0.008 C 
ATOM     30  C   UNL     1      43.642  19.357  19.571  0.00  0.00    +0.037 C 
ATOM     31  C   UNL     1      42.222  19.051  19.983  0.00  0.00    -0.008 C 
ATOM     32  C   UNL     1      41.945  19.102  21.483  0.00  0.00    +0.017 C 
ENDROOT
BRANCH  19  20
ATOM     20  O   UNL     1      47.645  12.205  18.346  0.00  0.00    -0.557 OA
ATOM     21  H   UNL     1      48.568  12.484  18.276  0.00  0.00    +0.374 HD
ENDBRANCH  19  20
TORSDOF 1
ENDMDL
MODEL 2
REMARK VINA RESULT:      -6.6      2.949      7.353
REMARK  Name = ZINC95486126
REMARK  9 active torsions:
REMARK  status: ('A' for Active; 'I' for Inactive)
REMARK    1  A    between atoms: C1_1  and  C2_2
REMARK    2  A    between atoms: C5_6  and  C30_39
REMARK    3  A    between atoms: C8_9  and  C29_38
REMARK    4  A    between atoms: C13_15  and  C25_32
REMARK    5  A    between atoms: C18_22  and  C24_31
REMARK    6  A    between atoms: C20_25  and  O1_30
REMARK    7  A    between atoms: C21_27  and  C22_28
REMARK    8  A    between atoms: C21_27  and  C23_29
REMARK    9  A    between atoms: C27_35  and  C28_37
REMARK                            x       y       z     vdW  Elec       q    Type
REMARK                         _______ _______ _______ _____ _____    ______ ____
ROOT
ATOM      1  C   UNL     1      49.804  14.772  16.970  0.00  0.00    +0.013 C 
ATOM      2  C   UNL     1      50.883  15.846  16.869  0.00  0.00    -0.022 C 
ATOM      3  C   UNL     1      52.098  15.471  17.706  0.00  0.00    +0.007 C 
ATOM      4  C   UNL     1      51.813  15.540  19.200  0.00  0.00    +0.009 C 
ATOM      5  C   UNL     1      51.320  16.937  19.597  0.00  0.00    -0.039 C 
ATOM      6  C   UNL     1      52.465  17.933  19.432  0.00  0.00    +0.022 C 
ATOM      7  C   UNL     1      50.957  16.910  21.090  0.00  0.00    +0.005 C 
ATOM      8  C   UNL     1      50.387  18.263  21.519  0.00  0.00    +0.021 C 
ATOM      9  C   UNL     1      49.095  18.568  20.754  0.00  0.00    +0.007 C 
ATOM     10  C   UNL     1      48.155  17.385  21.037  0.00  0.00    +0.018 C 
ATOM     11  C   UNL     1      49.385  18.507  19.270  0.00  0.00    -0.082 C 
ATOM     12  C   UNL     1      49.032  19.454  18.458  0.00  0.00    -0.060 C 
ATOM     13  C   UNL     1      48.403  20.745  18.891  0.00  0.00    +0.050 C 
ATOM     14  C   UNL     1      47.597  20.547  20.167  0.00  0.00    +0.004 C 
ATOM     15  C   UNL     1      46.284  19.823  19.911  0.00  0.00    +0.014 C 
ATOM     16  C   UNL     1      45.520  20.503  18.775  0.00  0.00    -0.016 C 
ATOM     17  C   UNL     1      45.334  21.996  19.033  0.00  0.00    +0.018 C 
ATOM     18  C   UNL     1      44.168  19.832  18.549  0.00  0.00    -0.017 C 
ATOM     19  C   UNL     1      43.340  19.760  19.820  0.00  0.00    +0.162 C 
ATOM     22  C   UNL     1      44.117  19.124  20.971  0.00  0.00    -0.043 C 
ATOM     23  C   UNL     1      43.263  19.242  22.244  0.00  0.00    +0.025 C 
ATOM     24  C   UNL     1      44.321  17.638  20.664  0.00  0.00    +0.029 C 
ATOM     25  C   UNL     1      45.453  19.831  21.193  0.00  0.00    +0.019 C 
ATOM     26  C   UNL     1      46.218  19.168  22.333  0.00  0.00    +0.001 C 
ATOM     27  C   UNL     1      47.634  19.684  22.505  0.00  0.00    +0.011 C 
ATOM     28  C   UNL     1      48.448  19.847  21.224  0.00  0.00    -0.026 C 
ATOM     29  C   UNL     1      49.573  20.860  21.584  0.00  0.00    +0.008 C 
ATOM     30  C   UNL     1      50.094  17.273  18.768  0.00  0.00    +0.037 C 
ATOM     31  C   UNL     1      50.319  17.213  17.276  0.00  0.00    -0.008 C 
ATOM     32  C   UNL     1      51.227  18.297  16.701  0.00  0.00    +0.017 C 
ENDROOT
BRANCH  19  20
ATOM     20  O   UNL     1      42.856  21.046  20.204  0.00  0.00    -0.557 OA
ATOM     21  H   UNL     1      42.218  21.426  19.585  0.00  0.00    +0.374 HD
ENDBRANCH  19  20
TORSDOF 1
ENDMDL
MODEL 3
REMARK VINA RESULT:      -6.5      3.256      6.371
REMARK  Name = ZINC95486126
REMARK  9 active torsions:
REMARK  status: ('A' for Active; 'I' for Inactive)
REMARK    1  A    between atoms: C1_1  and  C2_2
REMARK    2  A    between atoms: C5_6  and  C30_39
REMARK    3  A    between atoms: C8_9  and  C29_38
REMARK    4  A    between atoms: C13_15  and  C25_32
REMARK    5  A    between atoms: C18_22  and  C24_31
REMARK    6  A    between atoms: C20_25  and  O1_30
REMARK    7  A    between atoms: C21_27  and  C22_28
REMARK    8  A    between atoms: C21_27  and  C23_29
REMARK    9  A    between atoms: C27_35  and  C28_37
REMARK                            x       y       z     vdW  Elec       q    Type
REMARK                         _______ _______ _______ _____ _____    ______ ____
ROOT
ATOM      1  C   UNL     1      47.578  12.992  18.973  0.00  0.00    +0.013 C 
ATOM      2  C   UNL     1      47.137  13.223  20.416  0.00  0.00    -0.022 C 
ATOM      3  C   UNL     1      45.620  13.292  20.513  0.00  0.00    +0.007 C 
ATOM      4  C   UNL     1      45.057  14.553  19.872  0.00  0.00    +0.009 C 
ATOM      5  C   UNL     1      45.675  15.807  20.504  0.00  0.00    -0.039 C 
ATOM      6  C   UNL     1      45.193  15.925  21.948  0.00  0.00    +0.022 C 
ATOM      7  C   UNL     1      45.144  17.035  19.749  0.00  0.00    +0.005 C 
ATOM      8  C   UNL     1      45.790  18.310  20.293  0.00  0.00    +0.021 C 
ATOM      9  C   UNL     1      47.306  18.278  20.075  0.00  0.00    +0.007 C 
ATOM     10  C   UNL     1      47.505  18.082  18.563  0.00  0.00    +0.018 C 
ATOM     11  C   UNL     1      47.862  17.027  20.721  0.00  0.00    -0.082 C 
ATOM     12  C   UNL     1      48.879  17.057  21.524  0.00  0.00    -0.060 C 
ATOM     13  C   UNL     1      49.550  18.317  21.987  0.00  0.00    +0.050 C 
ATOM     14  C   UNL     1      49.424  19.409  20.935  0.00  0.00    +0.004 C 
ATOM     15  C   UNL     1      50.352  19.176  19.752  0.00  0.00    +0.014 C 
ATOM     16  C   UNL     1      51.778  18.925  20.242  0.00  0.00    -0.016 C 
ATOM     17  C   UNL     1      52.263  20.039  21.166  0.00  0.00    +0.018 C 
ATOM     18  C   UNL     1      52.737  18.757  19.066  0.00  0.00    -0.017 C 
ATOM     19  C   UNL     1      52.672  19.925  18.097  0.00  0.00    +0.162 C 
ATOM     22  C   UNL     1      51.242  20.209  17.643  0.00  0.00    -0.043 C 
ATOM     23  C   UNL     1      51.257  21.496  16.802  0.00  0.00    +0.025 C 
ATOM     24  C   UNL     1      50.772  19.056  16.751  0.00  0.00    +0.029 C 
ATOM     25  C   UNL     1      50.310  20.399  18.837  0.00  0.00    +0.019 C 
ATOM     26  C   UNL     1      48.886  20.664  18.360  0.00  0.00    +0.001 C 
ATOM     27  C   UNL     1      47.857  20.683  19.474  0.00  0.00    +0.011 C 
ATOM     28  C   UNL     1      47.967  19.563  20.506  0.00  0.00    -0.026 C 
ATOM     29  C   UNL     1      47.222  20.097  21.764  0.00  0.00    +0.008 C 
ATOM     30  C   UNL     1      47.185  15.725  20.369  0.00  0.00    +0.037 C 
ATOM     31  C   UNL     1      47.796  14.487  20.982  0.00  0.00    -0.008 C 
ATOM     32  C   UNL     1      47.747  14.413  22.505  0.00  0.00    +0.017 C 
ENDROOT
BRANCH  19  20
ATOM     20  O   UNL     1      53.255  21.101  18.655  0.00  0.00    -0.557 OA
ATOM     21  H   UNL     1      54.126  21.316  18.296  0.00  0.00    +0.374 HD
ENDBRANCH  19  20
TORSDOF 1
ENDMDL
MODEL 4
REMARK VINA RESULT:      -6.4      1.234      1.598
REMARK  Name = ZINC95486126
REMARK  9 active torsions:
REMARK  status: ('A' for Active; 'I' for Inactive)
REMARK    1  A    between atoms: C1_1  and  C2_2
REMARK    2  A    between atoms: C5_6  and  C30_39
REMARK    3  A    between atoms: C8_9  and  C29_38
REMARK    4  A    between atoms: C13_15  and  C25_32
REMARK    5  A    between atoms: C18_22  and  C24_31
REMARK    6  A    between atoms: C20_25  and  O1_30
REMARK    7  A    between atoms: C21_27  and  C22_28
REMARK    8  A    between atoms: C21_27  and  C23_29
REMARK    9  A    between atoms: C27_35  and  C28_37
REMARK                            x       y       z     vdW  Elec       q    Type
REMARK                         _______ _______ _______ _____ _____    ______ ____
ROOT
ATOM      1  C   UNL     1      42.700  20.197  18.580  0.00  0.00    +0.013 C 
ATOM      2  C   UNL     1      43.184  20.589  19.973  0.00  0.00    -0.022 C 
ATOM      3  C   UNL     1      43.881  21.942  19.942  0.00  0.00    +0.007 C 
ATOM      4  C   UNL     1      45.218  21.885  19.217  0.00  0.00    +0.009 C 
ATOM      5  C   UNL     1      46.141  20.840  19.857  0.00  0.00    -0.039 C 
ATOM      6  C   UNL     1      46.539  21.317  21.251  0.00  0.00    +0.022 C 
ATOM      7  C   UNL     1      47.428  20.762  19.021  0.00  0.00    +0.005 C 
ATOM      8  C   UNL     1      48.353  19.678  19.575  0.00  0.00    +0.021 C 
ATOM      9  C   UNL     1      47.683  18.304  19.485  0.00  0.00    +0.007 C 
ATOM     10  C   UNL     1      47.326  18.112  18.002  0.00  0.00    +0.018 C 
ATOM     11  C   UNL     1      46.357  18.362  20.214  0.00  0.00    -0.082 C 
ATOM     12  C   UNL     1      46.015  17.477  21.097  0.00  0.00    -0.060 C 
ATOM     13  C   UNL     1      46.911  16.371  21.573  0.00  0.00    +0.050 C 
ATOM     14  C   UNL     1      47.887  15.964  20.479  0.00  0.00    +0.004 C 
ATOM     15  C   UNL     1      47.216  15.147  19.385  0.00  0.00    +0.014 C 
ATOM     16  C   UNL     1      46.429  13.990  19.999  0.00  0.00    -0.016 C 
ATOM     17  C   UNL     1      47.299  13.142  20.923  0.00  0.00    +0.018 C 
ATOM     18  C   UNL     1      45.805  13.118  18.912  0.00  0.00    -0.017 C 
ATOM     19  C   UNL     1      46.831  12.630  17.904  0.00  0.00    +0.162 C 
ATOM     22  C   UNL     1      47.652  13.780  17.324  0.00  0.00    -0.043 C 
ATOM     23  C   UNL     1      48.761  13.176  16.446  0.00  0.00    +0.025 C 
ATOM     24  C   UNL     1      46.743  14.632  16.434  0.00  0.00    +0.029 C 
ATOM     25  C   UNL     1      48.286  14.619  18.431  0.00  0.00    +0.019 C 
ATOM     26  C   UNL     1      49.086  15.769  17.829  0.00  0.00    +0.001 C 
ATOM     27  C   UNL     1      49.600  16.763  18.853  0.00  0.00    +0.011 C 
ATOM     28  C   UNL     1      48.604  17.194  19.927  0.00  0.00    -0.026 C 
ATOM     29  C   UNL     1      49.476  17.724  21.102  0.00  0.00    +0.008 C 
ATOM     30  C   UNL     1      45.433  19.497  19.850  0.00  0.00    +0.037 C 
ATOM     31  C   UNL     1      44.095  19.499  20.551  0.00  0.00    -0.008 C 
ATOM     32  C   UNL     1      44.145  19.667  22.066  0.00  0.00    +0.017 C 
ENDROOT
BRANCH  19  20
ATOM     20  O   UNL     1      47.693  11.645  18.470  0.00  0.00    -0.557 OA
ATOM     21  H   UNL     1      48.208  11.151  17.817  0.00  0.00    +0.374 HD
ENDBRANCH  19  20
TORSDOF 1
ENDMDL
MODEL 5
REMARK VINA RESULT:      -6.2      3.694      5.659
REMARK  Name = ZINC95486126
REMARK  9 active torsions:
REMARK  status: ('A' for Active; 'I' for Inactive)
REMARK    1  A    between atoms: C1_1  and  C2_2
REMARK    2  A    between atoms: C5_6  and  C30_39
REMARK    3  A    between atoms: C8_9  and  C29_38
REMARK    4  A    between atoms: C13_15  and  C25_32
REMARK    5  A    between atoms: C18_22  and  C24_31
REMARK    6  A    between atoms: C20_25  and  O1_30
REMARK    7  A    between atoms: C21_27  and  C22_28
REMARK    8  A    between atoms: C21_27  and  C23_29
REMARK    9  A    between atoms: C27_35  and  C28_37
REMARK                            x       y       z     vdW  Elec       q    Type
REMARK                         _______ _______ _______ _____ _____    ______ ____
ROOT
ATOM      1  C   UNL     1      51.463  20.675  16.778  0.00  0.00    +0.013 C 
ATOM      2  C   UNL     1      50.796  21.151  18.065  0.00  0.00    -0.022 C 
ATOM      3  C   UNL     1      51.838  21.496  19.119  0.00  0.00    +0.007 C 
ATOM      4  C   UNL     1      52.554  20.260  19.649  0.00  0.00    +0.009 C 
ATOM      5  C   UNL     1      51.549  19.252  20.221  0.00  0.00    -0.039 C 
ATOM      6  C   UNL     1      50.922  19.839  21.483  0.00  0.00    +0.022 C 
ATOM      7  C   UNL     1      52.322  17.993  20.644  0.00  0.00    +0.005 C 
ATOM      8  C   UNL     1      51.353  16.925  21.154  0.00  0.00    +0.021 C 
ATOM      9  C   UNL     1      50.389  16.501  20.042  0.00  0.00    +0.007 C 
ATOM     10  C   UNL     1      51.277  16.025  18.881  0.00  0.00    +0.018 C 
ATOM     11  C   UNL     1      49.674  17.731  19.524  0.00  0.00    -0.082 C 
ATOM     12  C   UNL     1      48.385  17.778  19.396  0.00  0.00    -0.060 C 
ATOM     13  C   UNL     1      47.454  16.685  19.833  0.00  0.00    +0.050 C 
ATOM     14  C   UNL     1      48.142  15.330  19.750  0.00  0.00    +0.004 C 
ATOM     15  C   UNL     1      48.278  14.841  18.315  0.00  0.00    +0.014 C 
ATOM     16  C   UNL     1      46.927  14.914  17.604  0.00  0.00    -0.016 C 
ATOM     17  C   UNL     1      45.838  14.179  18.380  0.00  0.00    +0.018 C 
ATOM     18  C   UNL     1      47.029  14.363  16.184  0.00  0.00    -0.017 C 
ATOM     19  C   UNL     1      47.609  12.960  16.150  0.00  0.00    +0.162 C 
ATOM     22  C   UNL     1      48.935  12.873  16.901  0.00  0.00    -0.043 C 
ATOM     23  C   UNL     1      49.358  11.395  16.950  0.00  0.00    +0.025 C 
ATOM     24  C   UNL     1      49.995  13.652  16.117  0.00  0.00    +0.029 C 
ATOM     25  C   UNL     1      48.799  13.405  18.326  0.00  0.00    +0.019 C 
ATOM     26  C   UNL     1      50.139  13.325  19.050  0.00  0.00    +0.001 C 
ATOM     27  C   UNL     1      50.145  14.000  20.409  0.00  0.00    +0.011 C 
ATOM     28  C   UNL     1      49.485  15.375  20.476  0.00  0.00    -0.026 C 
ATOM     29  C   UNL     1      49.133  15.583  21.978  0.00  0.00    +0.008 C 
ATOM     30  C   UNL     1      50.539  18.907  19.142  0.00  0.00    +0.037 C 
ATOM     31  C   UNL     1      49.804  20.099  18.576  0.00  0.00    -0.008 C 
ATOM     32  C   UNL     1      48.825  20.782  19.526  0.00  0.00    +0.017 C 
ENDROOT
BRANCH  19  20
ATOM     20  O   UNL     1      46.687  12.000  16.663  0.00  0.00    -0.557 OA
ATOM     21  H   UNL     1      46.290  12.250  17.509  0.00  0.00    +0.374 HD
ENDBRANCH  19  20
TORSDOF 1
ENDMDL
MODEL 6
REMARK VINA RESULT:      -6.1      3.542      7.672
REMARK  Name = ZINC95486126
REMARK  9 active torsions:
REMARK  status: ('A' for Active; 'I' for Inactive)
REMARK    1  A    between atoms: C1_1  and  C2_2
REMARK    2  A    between atoms: C5_6  and  C30_39
REMARK    3  A    between atoms: C8_9  and  C29_38
REMARK    4  A    between atoms: C13_15  and  C25_32
REMARK    5  A    between atoms: C18_22  and  C24_31
REMARK    6  A    between atoms: C20_25  and  O1_30
REMARK    7  A    between atoms: C21_27  and  C22_28
REMARK    8  A    between atoms: C21_27  and  C23_29
REMARK    9  A    between atoms: C27_35  and  C28_37
REMARK                            x       y       z     vdW  Elec       q    Type
REMARK                         _______ _______ _______ _____ _____    ______ ____
ROOT
ATOM      1  C   UNL     1      50.830  20.170  15.066  0.00  0.00    +0.013 C 
ATOM      2  C   UNL     1      51.956  20.016  16.084  0.00  0.00    -0.022 C 
ATOM      3  C   UNL     1      52.591  18.636  15.982  0.00  0.00    +0.007 C 
ATOM      4  C   UNL     1      51.658  17.534  16.468  0.00  0.00    +0.009 C 
ATOM      5  C   UNL     1      51.212  17.795  17.912  0.00  0.00    -0.039 C 
ATOM      6  C   UNL     1      52.416  17.643  18.838  0.00  0.00    +0.022 C 
ATOM      7  C   UNL     1      50.200  16.708  18.305  0.00  0.00    +0.005 C 
ATOM      8  C   UNL     1      49.667  16.966  19.714  0.00  0.00    +0.021 C 
ATOM      9  C   UNL     1      48.923  18.304  19.769  0.00  0.00    +0.007 C 
ATOM     10  C   UNL     1      47.822  18.212  18.700  0.00  0.00    +0.018 C 
ATOM     11  C   UNL     1      49.856  19.398  19.293  0.00  0.00    -0.082 C 
ATOM     12  C   UNL     1      50.037  20.492  19.964  0.00  0.00    -0.060 C 
ATOM     13  C   UNL     1      49.441  20.760  21.315  0.00  0.00    +0.050 C 
ATOM     14  C   UNL     1      48.121  20.022  21.475  0.00  0.00    +0.004 C 
ATOM     15  C   UNL     1      46.996  20.679  20.687  0.00  0.00    +0.014 C 
ATOM     16  C   UNL     1      46.934  22.172  21.004  0.00  0.00    -0.016 C 
ATOM     17  C   UNL     1      46.834  22.428  22.505  0.00  0.00    +0.018 C 
ATOM     18  C   UNL     1      45.768  22.836  20.275  0.00  0.00    -0.017 C 
ATOM     19  C   UNL     1      44.445  22.145  20.554  0.00  0.00    +0.162 C 
ATOM     22  C   UNL     1      44.518  20.643  20.283  0.00  0.00    -0.043 C 
ATOM     23  C   UNL     1      43.194  20.012  20.745  0.00  0.00    +0.025 C 
ATOM     24  C   UNL     1      44.657  20.423  18.775  0.00  0.00    +0.029 C 
ATOM     25  C   UNL     1      45.675  20.001  21.045  0.00  0.00    +0.019 C 
ATOM     26  C   UNL     1      45.739  18.507  20.747  0.00  0.00    +0.001 C 
ATOM     27  C   UNL     1      46.966  17.818  21.313  0.00  0.00    +0.011 C 
ATOM     28  C   UNL     1      48.293  18.548  21.118  0.00  0.00    -0.026 C 
ATOM     29  C   UNL     1      49.239  17.969  22.209  0.00  0.00    +0.008 C 
ATOM     30  C   UNL     1      50.560  19.164  17.979  0.00  0.00    +0.037 C 
ATOM     31  C   UNL     1      51.440  20.294  17.501  0.00  0.00    -0.008 C 
ATOM     32  C   UNL     1      52.635  20.622  18.392  0.00  0.00    +0.017 C 
ENDROOT
BRANCH  19  20
ATOM     20  O   UNL     1      43.999  22.384  21.887  0.00  0.00    -0.557 OA
ATOM     21  H   UNL     1      44.397  21.798  22.546  0.00  0.00    +0.374 HD
ENDBRANCH  19  20
TORSDOF 1
ENDMDL
MODEL 7
REMARK VINA RESULT:      -5.8      4.482      6.555
REMARK  Name = ZINC95486126
REMARK  9 active torsions:
REMARK  status: ('A' for Active; 'I' for Inactive)
REMARK    1  A    between atoms: C1_1  and  C2_2
REMARK    2  A    between atoms: C5_6  and  C30_39
REMARK    3  A    between atoms: C8_9  and  C29_38
REMARK    4  A    between atoms: C13_15  and  C25_32
REMARK    5  A    between atoms: C18_22  and  C24_31
REMARK    6  A    between atoms: C20_25  and  O1_30
REMARK    7  A    between atoms: C21_27  and  C22_28
REMARK    8  A    between atoms: C21_27  and  C23_29
REMARK    9  A    between atoms: C27_35  and  C28_37
REMARK                            x       y       z     vdW  Elec       q    Type
REMARK                         _______ _______ _______ _____ _____    ______ ____
ROOT
ATOM      1  C   UNL     1      51.803  19.636  15.917  0.00  0.00    +0.013 C 
ATOM      2  C   UNL     1      51.093  19.962  17.228  0.00  0.00    -0.022 C 
ATOM      3  C   UNL     1      52.102  20.268  18.326  0.00  0.00    +0.007 C 
ATOM      4  C   UNL     1      52.878  19.031  18.759  0.00  0.00    +0.009 C 
ATOM      5  C   UNL     1      51.924  17.925  19.225  0.00  0.00    -0.039 C 
ATOM      6  C   UNL     1      51.250  18.365  20.522  0.00  0.00    +0.022 C 
ATOM      7  C   UNL     1      52.760  16.677  19.550  0.00  0.00    +0.005 C 
ATOM      8  C   UNL     1      51.846  15.518  19.949  0.00  0.00    +0.021 C 
ATOM      9  C   UNL     1      50.920  15.141  18.789  0.00  0.00    +0.007 C 
ATOM     10  C   UNL     1      51.848  14.817  17.606  0.00  0.00    +0.018 C 
ATOM     11  C   UNL     1      50.145  16.371  18.367  0.00  0.00    -0.082 C 
ATOM     12  C   UNL     1      48.857  16.359  18.221  0.00  0.00    -0.060 C 
ATOM     13  C   UNL     1      47.982  15.184  18.545  0.00  0.00    +0.050 C 
ATOM     14  C   UNL     1      48.745  13.881  18.358  0.00  0.00    +0.004 C 
ATOM     15  C   UNL     1      48.925  13.527  16.889  0.00  0.00    +0.014 C 
ATOM     16  C   UNL     1      47.582  13.588  16.163  0.00  0.00    -0.016 C 
ATOM     17  C   UNL     1      46.526  12.731  16.855  0.00  0.00    +0.018 C 
ATOM     18  C   UNL     1      47.731  13.170  14.703  0.00  0.00    -0.017 C 
ATOM     19  C   UNL     1      48.388  11.808  14.557  0.00  0.00    +0.162 C 
ATOM     22  C   UNL     1      49.708  11.728  15.321  0.00  0.00    -0.043 C 
ATOM     23  C   UNL     1      50.212  10.277  15.249  0.00  0.00    +0.025 C 
ATOM     24  C   UNL     1      50.733  12.628  14.626  0.00  0.00    +0.029 C 
ATOM     25  C   UNL     1      49.525  12.126  16.784  0.00  0.00    +0.019 C 
ATOM     26  C   UNL     1      50.858  12.055  17.522  0.00  0.00    +0.001 C 
ATOM     27  C   UNL     1      50.810  12.608  18.933  0.00  0.00    +0.011 C 
ATOM     28  C   UNL     1      50.074  13.934  19.108  0.00  0.00    -0.026 C 
ATOM     29  C   UNL     1      49.693  13.991  20.616  0.00  0.00    +0.008 C 
ATOM     30  C   UNL     1      50.948  17.621  18.103  0.00  0.00    +0.037 C 
ATOM     31  C   UNL     1      50.155  18.816  17.629  0.00  0.00    -0.008 C 
ATOM     32  C   UNL     1      49.128  19.360  18.618  0.00  0.00    +0.017 C 
ENDROOT
BRANCH  19  20
ATOM     20  O   UNL     1      47.515  10.759  14.970  0.00  0.00    -0.557 OA
ATOM     21  H   UNL     1      47.044  10.941  15.795  0.00  0.00    +0.374 HD
ENDBRANCH  19  20
TORSDOF 1
ENDMDL
MODEL 8
REMARK VINA RESULT:      -5.8      4.115      7.917
REMARK  Name = ZINC95486126
REMARK  9 active torsions:
REMARK  status: ('A' for Active; 'I' for Inactive)
REMARK    1  A    between atoms: C1_1  and  C2_2
REMARK    2  A    between atoms: C5_6  and  C30_39
REMARK    3  A    between atoms: C8_9  and  C29_38
REMARK    4  A    between atoms: C13_15  and  C25_32
REMARK    5  A    between atoms: C18_22  and  C24_31
REMARK    6  A    between atoms: C20_25  and  O1_30
REMARK    7  A    between atoms: C21_27  and  C22_28
REMARK    8  A    between atoms: C21_27  and  C23_29
REMARK    9  A    between atoms: C27_35  and  C28_37
REMARK                            x       y       z     vdW  Elec       q    Type
REMARK                         _______ _______ _______ _____ _____    ______ ____
ROOT
ATOM      1  C   UNL     1      50.330  12.291  14.108  0.00  0.00    +0.013 C 
ATOM      2  C   UNL     1      49.946  11.344  15.241  0.00  0.00    -0.022 C 
ATOM      3  C   UNL     1      48.534  10.809  15.043  0.00  0.00    +0.007 C 
ATOM      4  C   UNL     1      47.475  11.885  15.243  0.00  0.00    +0.009 C 
ATOM      5  C   UNL     1      47.600  12.519  16.634  0.00  0.00    -0.039 C 
ATOM      6  C   UNL     1      47.222  11.482  17.688  0.00  0.00    +0.022 C 
ATOM      7  C   UNL     1      46.574  13.659  16.733  0.00  0.00    +0.005 C 
ATOM      8  C   UNL     1      46.708  14.375  18.078  0.00  0.00    +0.021 C 
ATOM      9  C   UNL     1      48.094  15.014  18.209  0.00  0.00    +0.007 C 
ATOM     10  C   UNL     1      48.238  15.947  16.996  0.00  0.00    +0.018 C 
ATOM     11  C   UNL     1      49.143  13.940  18.018  0.00  0.00    -0.082 C 
ATOM     12  C   UNL     1      50.125  13.777  18.848  0.00  0.00    -0.060 C 
ATOM     13  C   UNL     1      50.282  14.545  20.128  0.00  0.00    +0.050 C 
ATOM     14  C   UNL     1      49.660  15.927  20.004  0.00  0.00    +0.004 C 
ATOM     15  C   UNL     1      50.512  16.868  19.164  0.00  0.00    +0.014 C 
ATOM     16  C   UNL     1      51.954  16.862  19.668  0.00  0.00    -0.016 C 
ATOM     17  C   UNL     1      52.033  17.165  21.161  0.00  0.00    +0.018 C 
ATOM     18  C   UNL     1      52.810  17.852  18.881  0.00  0.00    -0.017 C 
ATOM     19  C   UNL     1      52.219  19.251  18.879  0.00  0.00    +0.162 C 
ATOM     22  C   UNL     1      50.761  19.254  18.422  0.00  0.00    -0.043 C 
ATOM     23  C   UNL     1      50.208  20.676  18.608  0.00  0.00    +0.025 C 
ATOM     24  C   UNL     1      50.714  18.909  16.931  0.00  0.00    +0.029 C 
ATOM     25  C   UNL     1      49.924  18.276  19.243  0.00  0.00    +0.019 C 
ATOM     26  C   UNL     1      48.478  18.283  18.757  0.00  0.00    +0.001 C 
ATOM     27  C   UNL     1      47.612  17.210  19.389  0.00  0.00    +0.011 C 
ATOM     28  C   UNL     1      48.230  15.816  19.479  0.00  0.00    -0.026 C 
ATOM     29  C   UNL     1      47.434  15.091  20.602  0.00  0.00    +0.008 C 
ATOM     30  C   UNL     1      49.006  13.068  16.794  0.00  0.00    +0.037 C 
ATOM     31  C   UNL     1      50.097  12.043  16.598  0.00  0.00    -0.008 C 
ATOM     32  C   UNL     1      50.198  10.972  17.681  0.00  0.00    +0.017 C 
ENDROOT
BRANCH  19  20
ATOM     20  O   UNL     1      52.335  19.870  20.159  0.00  0.00    -0.557 OA
ATOM     21  H   UNL     1      52.349  19.247  20.897  0.00  0.00    +0.374 HD
ENDBRANCH  19  20
TORSDOF 1
ENDMDL
MODEL 9
REMARK VINA RESULT:      -5.7      2.333      7.082
REMARK  Name = ZINC95486126
REMARK  9 active torsions:
REMARK  status: ('A' for Active; 'I' for Inactive)
REMARK    1  A    between atoms: C1_1  and  C2_2
REMARK    2  A    between atoms: C5_6  and  C30_39
REMARK    3  A    between atoms: C8_9  and  C29_38
REMARK    4  A    between atoms: C13_15  and  C25_32
REMARK    5  A    between atoms: C18_22  and  C24_31
REMARK    6  A    between atoms: C20_25  and  O1_30
REMARK    7  A    between atoms: C21_27  and  C22_28
REMARK    8  A    between atoms: C21_27  and  C23_29
REMARK    9  A    between atoms: C27_35  and  C28_37
REMARK                            x       y       z     vdW  Elec       q    Type
REMARK                         _______ _______ _______ _____ _____    ______ ____
ROOT
ATOM      1  C   UNL     1      45.537  12.254  17.056  0.00  0.00    +0.013 C 
ATOM      2  C   UNL     1      46.993  12.536  16.693  0.00  0.00    -0.022 C 
ATOM      3  C   UNL     1      47.925  11.573  17.415  0.00  0.00    +0.007 C 
ATOM      4  C   UNL     1      47.982  11.839  18.913  0.00  0.00    +0.009 C 
ATOM      5  C   UNL     1      48.410  13.285  19.194  0.00  0.00    -0.039 C 
ATOM      6  C   UNL     1      49.866  13.463  18.769  0.00  0.00    +0.022 C 
ATOM      7  C   UNL     1      48.351  13.516  20.712  0.00  0.00    +0.005 C 
ATOM      8  C   UNL     1      48.697  14.969  21.039  0.00  0.00    +0.021 C 
ATOM      9  C   UNL     1      47.676  15.919  20.406  0.00  0.00    +0.007 C 
ATOM     10  C   UNL     1      46.305  15.474  20.944  0.00  0.00    +0.018 C 
ATOM     11  C   UNL     1      47.628  15.657  18.916  0.00  0.00    -0.082 C 
ATOM     12  C   UNL     1      47.719  16.611  18.044  0.00  0.00    -0.060 C 
ATOM     13  C   UNL     1      47.983  18.047  18.390  0.00  0.00    +0.050 C 
ATOM     14  C   UNL     1      47.431  18.376  19.769  0.00  0.00    +0.004 C 
ATOM     15  C   UNL     1      45.914  18.503  19.766  0.00  0.00    +0.014 C 
ATOM     16  C   UNL     1      45.468  19.456  18.658  0.00  0.00    -0.016 C 
ATOM     17  C   UNL     1      46.176  20.805  18.752  0.00  0.00    +0.018 C 
ATOM     18  C   UNL     1      43.954  19.650  18.682  0.00  0.00    -0.017 C 
ATOM     19  C   UNL     1      43.452  20.096  20.045  0.00  0.00    +0.162 C 
ATOM     22  C   UNL     1      43.936  19.172  21.161  0.00  0.00    -0.043 C 
ATOM     23  C   UNL     1      43.517  19.790  22.505  0.00  0.00    +0.025 C 
ATOM     24  C   UNL     1      43.237  17.818  21.014  0.00  0.00    +0.029 C 
ATOM     25  C   UNL     1      45.455  19.017  21.129  0.00  0.00    +0.019 C 
ATOM     26  C   UNL     1      45.913  18.078  22.240  0.00  0.00    +0.001 C 
ATOM     27  C   UNL     1      47.385  17.719  22.174  0.00  0.00    +0.011 C 
ATOM     28  C   UNL     1      47.924  17.355  20.792  0.00  0.00    -0.026 C 
ATOM     29  C   UNL     1      49.461  17.577  20.885  0.00  0.00    +0.008 C 
ATOM     30  C   UNL     1      47.448  14.222  18.485  0.00  0.00    +0.037 C 
ATOM     31  C   UNL     1      47.347  13.997  16.996  0.00  0.00    -0.008 C 
ATOM     32  C   UNL     1      48.587  14.367  16.187  0.00  0.00    +0.017 C 
ENDROOT
BRANCH  19  20
ATOM     20  O   UNL     1      43.823  21.444  20.325  0.00  0.00    -0.557 OA
ATOM     21  H   UNL     1      44.703  21.536  20.716  0.00  0.00    +0.374 HD
ENDBRANCH  19  20
TORSDOF 1
ENDMDL
