MODEL 1
REMARK VINA RESULT:      -6.2      0.000      0.000
REMARK  Name = ZINC95486297
REMARK  5 active torsions:
REMARK  status: ('A' for Active; 'I' for Inactive)
REMARK    1  A    between atoms: C1_1  and  O1_2
REMARK    2  A    between atoms: O1_2  and  C2_3
REMARK    3  A    between atoms: C5_6  and  O2_9
REMARK    4  A    between atoms: O2_9  and  C8_10
REMARK    5  A    between atoms: C14_17  and  O5_21
REMARK                            x       y       z     vdW  Elec       q    Type
REMARK                         _______ _______ _______ _____ _____    ______ ____
ROOT
ATOM      8  C   UNL     1      44.167  18.748  20.559  0.00  0.00    -0.012 A 
ATOM      9  C   UNL     1      44.907  19.875  20.740  0.00  0.00    +0.116 A 
ATOM     10  O   UNL     1      46.127  19.805  21.344  0.00  0.00    -0.681 OA
ATOM     11  C   UNL     1      44.402  21.119  20.298  0.00  0.00    +0.396 A 
ATOM     12  C   UNL     1      43.077  21.122  19.653  0.00  0.00    -0.252 A 
ATOM     13  C   UNL     1      42.500  22.303  19.185  0.00  0.00    +0.127 A 
ATOM     14  C   UNL     1      41.269  22.268  18.592  0.00  0.00    -0.076 A 
ATOM     15  C   UNL     1      40.588  21.062  18.452  0.00  0.00    +0.157 A 
ATOM     18  C   UNL     1      41.147  19.881  18.912  0.00  0.00    -0.055 A 
ATOM     19  C   UNL     1      42.396  19.899  19.516  0.00  0.00    +0.195 A 
ATOM     20  O   UNL     1      45.039  22.150  20.444  0.00  0.00    -0.479 OA
ATOM     21  O   UNL     1      42.965  18.761  19.966  0.00  0.00    -0.237 OA
ENDROOT
BRANCH  15  16
ATOM     16  O   UNL     1      39.366  21.044  17.861  0.00  0.00    -0.497 OA
ATOM     17  H   UNL     1      38.645  20.799  18.457  0.00  0.00    +0.391 HD
ENDBRANCH  15  16
BRANCH   8   7
ATOM      7  O   UNL     1      44.667  17.568  20.988  0.00  0.00    -0.202 OA
BRANCH   7   6
ATOM      3  C   UNL     1      46.149  14.952  18.158  0.00  0.00    +0.110 A 
ATOM      4  C   UNL     1      45.578  14.462  19.324  0.00  0.00    -0.066 A 
ATOM      5  C   UNL     1      45.083  15.337  20.271  0.00  0.00    +0.037 A 
ATOM      6  C   UNL     1      45.156  16.706  20.056  0.00  0.00    +0.072 A 
ATOM     22  C   UNL     1      45.726  17.196  18.890  0.00  0.00    +0.049 A 
ATOM     23  C   UNL     1      46.226  16.320  17.945  0.00  0.00    -0.006 A 
BRANCH   3   2
ATOM      1  C   UNL     1      46.054  12.786  17.180  0.00  0.00    +0.232 C 
ATOM      2  O   UNL     1      46.636  14.091  17.227  0.00  0.00    -0.320 OA
ENDBRANCH   3   2
ENDBRANCH   7   6
ENDBRANCH   8   7
TORSDOF 4
ENDMDL
MODEL 2
REMARK VINA RESULT:      -6.1      4.509      8.267
REMARK  Name = ZINC95486297
REMARK  5 active torsions:
REMARK  status: ('A' for Active; 'I' for Inactive)
REMARK    1  A    between atoms: C1_1  and  O1_2
REMARK    2  A    between atoms: O1_2  and  C2_3
REMARK    3  A    between atoms: C5_6  and  O2_9
REMARK    4  A    between atoms: O2_9  and  C8_10
REMARK    5  A    between atoms: C14_17  and  O5_21
REMARK                            x       y       z     vdW  Elec       q    Type
REMARK                         _______ _______ _______ _____ _____    ______ ____
ROOT
ATOM      8  C   UNL     1      48.876  19.815  20.108  0.00  0.00    -0.012 A 
ATOM      9  C   UNL     1      48.960  18.462  19.994  0.00  0.00    +0.116 A 
ATOM     10  O   UNL     1      48.247  17.657  20.832  0.00  0.00    -0.681 OA
ATOM     11  C   UNL     1      49.793  17.897  19.002  0.00  0.00    +0.396 A 
ATOM     12  C   UNL     1      50.536  18.825  18.131  0.00  0.00    -0.252 A 
ATOM     13  C   UNL     1      51.380  18.356  17.124  0.00  0.00    +0.127 A 
ATOM     14  C   UNL     1      52.054  19.245  16.335  0.00  0.00    -0.076 A 
ATOM     15  C   UNL     1      51.902  20.615  16.529  0.00  0.00    +0.157 A 
ATOM     18  C   UNL     1      51.067  21.096  17.525  0.00  0.00    -0.055 A 
ATOM     19  C   UNL     1      50.376  20.206  18.334  0.00  0.00    +0.195 A 
ATOM     20  O   UNL     1      49.892  16.686  18.872  0.00  0.00    -0.479 OA
ATOM     21  O   UNL     1      49.552  20.650  19.306  0.00  0.00    -0.237 OA
ENDROOT
BRANCH  15  16
ATOM     16  O   UNL     1      52.577  21.487  15.737  0.00  0.00    -0.497 OA
ATOM     17  H   UNL     1      52.088  21.763  14.950  0.00  0.00    +0.391 HD
ENDBRANCH  15  16
BRANCH   8   7
ATOM      7  O   UNL     1      48.074  20.337  21.062  0.00  0.00    -0.202 OA
BRANCH   7   6
ATOM      3  C   UNL     1      44.989  22.803  19.859  0.00  0.00    +0.110 A 
ATOM      4  C   UNL     1      45.751  23.137  20.970  0.00  0.00    -0.066 A 
ATOM      5  C   UNL     1      46.783  22.312  21.372  0.00  0.00    +0.037 A 
ATOM      6  C   UNL     1      47.057  21.149  20.666  0.00  0.00    +0.072 A 
ATOM     22  C   UNL     1      46.296  20.816  19.556  0.00  0.00    +0.049 A 
ATOM     23  C   UNL     1      45.261  21.639  19.156  0.00  0.00    -0.006 A 
BRANCH   3   2
ATOM      1  C   UNL     1      44.330  24.797  18.743  0.00  0.00    +0.232 C 
ATOM      2  O   UNL     1      43.974  23.615  19.463  0.00  0.00    -0.320 OA
ENDBRANCH   3   2
ENDBRANCH   7   6
ENDBRANCH   8   7
TORSDOF 4
ENDMDL
MODEL 3
REMARK VINA RESULT:      -6.1      1.597      7.023
REMARK  Name = ZINC95486297
REMARK  5 active torsions:
REMARK  status: ('A' for Active; 'I' for Inactive)
REMARK    1  A    between atoms: C1_1  and  O1_2
REMARK    2  A    between atoms: O1_2  and  C2_3
REMARK    3  A    between atoms: C5_6  and  O2_9
REMARK    4  A    between atoms: O2_9  and  C8_10
REMARK    5  A    between atoms: C14_17  and  O5_21
REMARK                            x       y       z     vdW  Elec       q    Type
REMARK                         _______ _______ _______ _____ _____    ______ ____
ROOT
ATOM      8  C   UNL     1      45.348  16.729  20.210  0.00  0.00    -0.012 A 
ATOM      9  C   UNL     1      45.085  15.637  20.976  0.00  0.00    +0.116 A 
ATOM     10  O   UNL     1      44.602  15.788  22.242  0.00  0.00    -0.681 OA
ATOM     11  C   UNL     1      45.316  14.345  20.451  0.00  0.00    +0.396 A 
ATOM     12  C   UNL     1      45.838  14.255  19.076  0.00  0.00    -0.252 A 
ATOM     13  C   UNL     1      46.095  13.022  18.477  0.00  0.00    +0.127 A 
ATOM     14  C   UNL     1      46.579  12.976  17.200  0.00  0.00    -0.076 A 
ATOM     15  C   UNL     1      46.818  14.152  16.494  0.00  0.00    +0.157 A 
ATOM     18  C   UNL     1      46.568  15.384  17.076  0.00  0.00    -0.055 A 
ATOM     19  C   UNL     1      46.076  15.448  18.371  0.00  0.00    +0.195 A 
ATOM     20  O   UNL     1      45.090  13.343  21.112  0.00  0.00    -0.479 OA
ATOM     21  O   UNL     1      45.818  16.636  18.957  0.00  0.00    -0.237 OA
ENDROOT
BRANCH  15  16
ATOM     16  O   UNL     1      47.299  14.091  15.226  0.00  0.00    -0.497 OA
ATOM     17  H   UNL     1      46.902  13.392  14.689  0.00  0.00    +0.391 HD
ENDBRANCH  15  16
BRANCH   8   7
ATOM      7  O   UNL     1      45.120  17.956  20.728  0.00  0.00    -0.202 OA
BRANCH   7   6
ATOM      3  C   UNL     1      41.676  19.930  19.593  0.00  0.00    +0.110 A 
ATOM      4  C   UNL     1      41.667  19.106  20.709  0.00  0.00    -0.066 A 
ATOM      5  C   UNL     1      42.819  18.445  21.089  0.00  0.00    +0.037 A 
ATOM      6  C   UNL     1      43.986  18.606  20.353  0.00  0.00    +0.072 A 
ATOM     22  C   UNL     1      43.995  19.430  19.238  0.00  0.00    +0.049 A 
ATOM     23  C   UNL     1      42.841  20.087  18.855  0.00  0.00    -0.006 A 
BRANCH   3   2
ATOM      1  C   UNL     1      40.703  21.815  18.518  0.00  0.00    +0.232 C 
ATOM      2  O   UNL     1      40.543  20.580  19.219  0.00  0.00    -0.320 OA
ENDBRANCH   3   2
ENDBRANCH   7   6
ENDBRANCH   8   7
TORSDOF 4
ENDMDL
MODEL 4
REMARK VINA RESULT:      -5.9      2.956      4.260
REMARK  Name = ZINC95486297
REMARK  5 active torsions:
REMARK  status: ('A' for Active; 'I' for Inactive)
REMARK    1  A    between atoms: C1_1  and  O1_2
REMARK    2  A    between atoms: O1_2  and  C2_3
REMARK    3  A    between atoms: C5_6  and  O2_9
REMARK    4  A    between atoms: O2_9  and  C8_10
REMARK    5  A    between atoms: C14_17  and  O5_21
REMARK                            x       y       z     vdW  Elec       q    Type
REMARK                         _______ _______ _______ _____ _____    ______ ____
ROOT
ATOM      8  C   UNL     1      45.545  19.488  21.369  0.00  0.00    -0.012 A 
ATOM      9  C   UNL     1      44.834  18.397  21.761  0.00  0.00    +0.116 A 
ATOM     10  O   UNL     1      45.429  17.422  22.505  0.00  0.00    -0.681 OA
ATOM     11  C   UNL     1      43.475  18.280  21.391  0.00  0.00    +0.396 A 
ATOM     12  C   UNL     1      42.896  19.370  20.586  0.00  0.00    -0.252 A 
ATOM     13  C   UNL     1      41.563  19.339  20.176  0.00  0.00    +0.127 A 
ATOM     14  C   UNL     1      41.058  20.367  19.430  0.00  0.00    -0.076 A 
ATOM     15  C   UNL     1      41.867  21.444  19.077  0.00  0.00    +0.157 A 
ATOM     18  C   UNL     1      43.193  21.489  19.477  0.00  0.00    -0.055 A 
ATOM     19  C   UNL     1      43.719  20.453  20.234  0.00  0.00    +0.195 A 
ATOM     20  O   UNL     1      42.808  17.313  21.726  0.00  0.00    -0.479 OA
ATOM     21  O   UNL     1      45.006  20.477  20.641  0.00  0.00    -0.237 OA
ENDROOT
BRANCH  15  16
ATOM     16  O   UNL     1      41.352  22.458  18.336  0.00  0.00    -0.497 OA
ATOM     17  H   UNL     1      41.844  22.640  17.523  0.00  0.00    +0.391 HD
ENDBRANCH  15  16
BRANCH   8   7
ATOM      7  O   UNL     1      46.843  19.583  21.733  0.00  0.00    -0.202 OA
BRANCH   7   6
ATOM      3  C   UNL     1      49.692  19.627  18.745  0.00  0.00    +0.110 A 
ATOM      4  C   UNL     1      49.004  18.456  19.030  0.00  0.00    -0.066 A 
ATOM      5  C   UNL     1      48.051  18.441  20.030  0.00  0.00    +0.037 A 
ATOM      6  C   UNL     1      47.782  19.597  20.749  0.00  0.00    +0.072 A 
ATOM     22  C   UNL     1      48.469  20.768  20.464  0.00  0.00    +0.049 A 
ATOM     23  C   UNL     1      49.426  20.781  19.467  0.00  0.00    -0.006 A 
BRANCH   3   2
ATOM      1  C   UNL     1      51.175  20.913  17.403  0.00  0.00    +0.232 C 
ATOM      2  O   UNL     1      50.629  19.641  17.762  0.00  0.00    -0.320 OA
ENDBRANCH   3   2
ENDBRANCH   7   6
ENDBRANCH   8   7
TORSDOF 4
ENDMDL
MODEL 5
REMARK VINA RESULT:      -5.6      3.013      7.008
REMARK  Name = ZINC95486297
REMARK  5 active torsions:
REMARK  status: ('A' for Active; 'I' for Inactive)
REMARK    1  A    between atoms: C1_1  and  O1_2
REMARK    2  A    between atoms: O1_2  and  C2_3
REMARK    3  A    between atoms: C5_6  and  O2_9
REMARK    4  A    between atoms: O2_9  and  C8_10
REMARK    5  A    between atoms: C14_17  and  O5_21
REMARK                            x       y       z     vdW  Elec       q    Type
REMARK                         _______ _______ _______ _____ _____    ______ ____
ROOT
ATOM      8  C   UNL     1      46.328  18.953  20.109  0.00  0.00    -0.012 A 
ATOM      9  C   UNL     1      46.444  17.763  19.460  0.00  0.00    +0.116 A 
ATOM     10  O   UNL     1      45.459  16.826  19.564  0.00  0.00    -0.681 OA
ATOM     11  C   UNL     1      47.592  17.504  18.678  0.00  0.00    +0.396 A 
ATOM     12  C   UNL     1      48.618  18.560  18.609  0.00  0.00    -0.252 A 
ATOM     13  C   UNL     1      49.783  18.391  17.861  0.00  0.00    +0.127 A 
ATOM     14  C   UNL     1      50.713  19.392  17.819  0.00  0.00    -0.076 A 
ATOM     15  C   UNL     1      50.505  20.577  18.520  0.00  0.00    +0.157 A 
ATOM     18  C   UNL     1      49.352  20.759  19.267  0.00  0.00    -0.055 A 
ATOM     19  C   UNL     1      48.399  19.753  19.319  0.00  0.00    +0.195 A 
ATOM     20  O   UNL     1      47.728  16.446  18.082  0.00  0.00    -0.479 OA
ATOM     21  O   UNL     1      47.265  19.909  20.034  0.00  0.00    -0.237 OA
ENDROOT
BRANCH  15  16
ATOM     16  O   UNL     1      51.438  21.562  18.469  0.00  0.00    -0.497 OA
ATOM     17  H   UNL     1      51.316  22.181  17.737  0.00  0.00    +0.391 HD
ENDBRANCH  15  16
BRANCH   8   7
ATOM      7  O   UNL     1      45.223  19.183  20.851  0.00  0.00    -0.202 OA
BRANCH   7   6
ATOM      3  C   UNL     1      42.150  21.340  19.133  0.00  0.00    +0.110 A 
ATOM      4  C   UNL     1      42.022  19.969  19.309  0.00  0.00    -0.066 A 
ATOM      5  C   UNL     1      43.050  19.248  19.883  0.00  0.00    +0.037 A 
ATOM      6  C   UNL     1      44.211  19.893  20.284  0.00  0.00    +0.072 A 
ATOM     22  C   UNL     1      44.339  21.263  20.109  0.00  0.00    +0.049 A 
ATOM     23  C   UNL     1      43.313  21.984  19.530  0.00  0.00    -0.006 A 
BRANCH   3   2
ATOM      1  C   UNL     1      39.848  21.437  18.545  0.00  0.00    +0.232 C 
ATOM      2  O   UNL     1      41.139  22.050  18.568  0.00  0.00    -0.320 OA
ENDBRANCH   3   2
ENDBRANCH   7   6
ENDBRANCH   8   7
TORSDOF 4
ENDMDL
MODEL 6
REMARK VINA RESULT:      -5.5      3.720      5.055
REMARK  Name = ZINC95486297
REMARK  5 active torsions:
REMARK  status: ('A' for Active; 'I' for Inactive)
REMARK    1  A    between atoms: C1_1  and  O1_2
REMARK    2  A    between atoms: O1_2  and  C2_3
REMARK    3  A    between atoms: C5_6  and  O2_9
REMARK    4  A    between atoms: O2_9  and  C8_10
REMARK    5  A    between atoms: C14_17  and  O5_21
REMARK                            x       y       z     vdW  Elec       q    Type
REMARK                         _______ _______ _______ _____ _____    ______ ____
ROOT
ATOM      8  C   UNL     1      47.195  18.970  20.584  0.00  0.00    -0.012 A 
ATOM      9  C   UNL     1      46.585  17.758  20.666  0.00  0.00    +0.116 A 
ATOM     10  O   UNL     1      47.311  16.643  20.961  0.00  0.00    -0.681 OA
ATOM     11  C   UNL     1      45.193  17.662  20.440  0.00  0.00    +0.396 A 
ATOM     12  C   UNL     1      44.469  18.907  20.125  0.00  0.00    -0.252 A 
ATOM     13  C   UNL     1      43.095  18.906  19.889  0.00  0.00    +0.127 A 
ATOM     14  C   UNL     1      42.456  20.080  19.599  0.00  0.00    -0.076 A 
ATOM     15  C   UNL     1      43.169  21.274  19.538  0.00  0.00    +0.157 A 
ATOM     18  C   UNL     1      44.535  21.290  19.770  0.00  0.00    -0.055 A 
ATOM     19  C   UNL     1      45.198  20.107  20.066  0.00  0.00    +0.195 A 
ATOM     20  O   UNL     1      44.613  16.589  20.505  0.00  0.00    -0.479 OA
ATOM     21  O   UNL     1      46.526  20.098  20.302  0.00  0.00    -0.237 OA
ENDROOT
BRANCH  15  16
ATOM     16  O   UNL     1      42.522  22.431  19.249  0.00  0.00    -0.497 OA
ATOM     17  H   UNL     1      42.635  22.727  18.335  0.00  0.00    +0.391 HD
ENDBRANCH  15  16
BRANCH   8   7
ATOM      7  O   UNL     1      48.527  19.043  20.804  0.00  0.00    -0.202 OA
BRANCH   7   6
ATOM      3  C   UNL     1      50.955  20.122  17.644  0.00  0.00    +0.110 A 
ATOM      4  C   UNL     1      50.675  21.038  18.648  0.00  0.00    -0.066 A 
ATOM      5  C   UNL     1      49.862  20.678  19.705  0.00  0.00    +0.037 A 
ATOM      6  C   UNL     1      49.326  19.399  19.762  0.00  0.00    +0.072 A 
ATOM     22  C   UNL     1      49.607  18.483  18.759  0.00  0.00    +0.049 A 
ATOM     23  C   UNL     1      50.416  18.845  17.700  0.00  0.00    -0.006 A 
BRANCH   3   2
ATOM      1  C   UNL     1      52.152  19.439  15.706  0.00  0.00    +0.232 C 
ATOM      2  O   UNL     1      51.755  20.478  16.605  0.00  0.00    -0.320 OA
ENDBRANCH   3   2
ENDBRANCH   7   6
ENDBRANCH   8   7
TORSDOF 4
ENDMDL
MODEL 7
REMARK VINA RESULT:      -5.4      1.744      2.452
REMARK  Name = ZINC95486297
REMARK  5 active torsions:
REMARK  status: ('A' for Active; 'I' for Inactive)
REMARK    1  A    between atoms: C1_1  and  O1_2
REMARK    2  A    between atoms: O1_2  and  C2_3
REMARK    3  A    between atoms: C5_6  and  O2_9
REMARK    4  A    between atoms: O2_9  and  C8_10
REMARK    5  A    between atoms: C14_17  and  O5_21
REMARK                            x       y       z     vdW  Elec       q    Type
REMARK                         _______ _______ _______ _____ _____    ______ ____
ROOT
ATOM      8  C   UNL     1      45.013  19.138  20.007  0.00  0.00    -0.012 A 
ATOM      9  C   UNL     1      44.459  18.306  20.930  0.00  0.00    +0.116 A 
ATOM     10  O   UNL     1      45.240  17.421  21.611  0.00  0.00    -0.681 OA
ATOM     11  C   UNL     1      43.069  18.365  21.176  0.00  0.00    +0.396 A 
ATOM     12  C   UNL     1      42.284  19.345  20.403  0.00  0.00    -0.252 A 
ATOM     13  C   UNL     1      40.907  19.473  20.581  0.00  0.00    +0.127 A 
ATOM     14  C   UNL     1      40.211  20.393  19.848  0.00  0.00    -0.076 A 
ATOM     15  C   UNL     1      40.868  21.201  18.925  0.00  0.00    +0.157 A 
ATOM     18  C   UNL     1      42.236  21.086  18.737  0.00  0.00    -0.055 A 
ATOM     19  C   UNL     1      42.957  20.157  19.474  0.00  0.00    +0.195 A 
ATOM     20  O   UNL     1      42.539  17.633  21.997  0.00  0.00    -0.479 OA
ATOM     21  O   UNL     1      44.291  20.030  19.314  0.00  0.00    -0.237 OA
ENDROOT
BRANCH  15  16
ATOM     16  O   UNL     1      40.164  22.110  18.203  0.00  0.00    -0.497 OA
ATOM     17  H   UNL     1      39.493  21.719  17.627  0.00  0.00    +0.391 HD
ENDBRANCH  15  16
BRANCH   8   7
ATOM      7  O   UNL     1      46.344  19.068  19.786  0.00  0.00    -0.202 OA
BRANCH   7   6
ATOM      3  C   UNL     1      47.750  16.014  17.390  0.00  0.00    +0.110 A 
ATOM      4  C   UNL     1      48.327  16.244  18.630  0.00  0.00    -0.066 A 
ATOM      5  C   UNL     1      47.857  17.266  19.432  0.00  0.00    +0.037 A 
ATOM      6  C   UNL     1      46.808  18.063  18.996  0.00  0.00    +0.072 A 
ATOM     22  C   UNL     1      46.230  17.833  17.757  0.00  0.00    +0.049 A 
ATOM     23  C   UNL     1      46.704  16.813  16.952  0.00  0.00    -0.006 A 
BRANCH   3   2
ATOM      1  C   UNL     1      47.319  13.924  16.341  0.00  0.00    +0.232 C 
ATOM      2  O   UNL     1      48.213  15.009  16.601  0.00  0.00    -0.320 OA
ENDBRANCH   3   2
ENDBRANCH   7   6
ENDBRANCH   8   7
TORSDOF 4
ENDMDL
MODEL 8
REMARK VINA RESULT:      -5.4      8.507     10.025
REMARK  Name = ZINC95486297
REMARK  5 active torsions:
REMARK  status: ('A' for Active; 'I' for Inactive)
REMARK    1  A    between atoms: C1_1  and  O1_2
REMARK    2  A    between atoms: O1_2  and  C2_3
REMARK    3  A    between atoms: C5_6  and  O2_9
REMARK    4  A    between atoms: O2_9  and  C8_10
REMARK    5  A    between atoms: C14_17  and  O5_21
REMARK                            x       y       z     vdW  Elec       q    Type
REMARK                         _______ _______ _______ _____ _____    ______ ____
ROOT
ATOM      8  C   UNL     1      52.581  17.449  20.149  0.00  0.00    -0.012 A 
ATOM      9  C   UNL     1      52.204  18.405  21.041  0.00  0.00    +0.116 A 
ATOM     10  O   UNL     1      52.243  18.148  22.379  0.00  0.00    -0.681 OA
ATOM     11  C   UNL     1      51.771  19.665  20.570  0.00  0.00    +0.396 A 
ATOM     12  C   UNL     1      51.753  19.875  19.112  0.00  0.00    -0.252 A 
ATOM     13  C   UNL     1      51.341  21.087  18.558  0.00  0.00    +0.127 A 
ATOM     14  C   UNL     1      51.338  21.247  17.201  0.00  0.00    -0.076 A 
ATOM     15  C   UNL     1      51.743  20.207  16.368  0.00  0.00    +0.157 A 
ATOM     18  C   UNL     1      52.154  18.997  16.903  0.00  0.00    -0.055 A 
ATOM     19  C   UNL     1      52.164  18.820  18.279  0.00  0.00    +0.195 A 
ATOM     20  O   UNL     1      51.425  20.546  21.343  0.00  0.00    -0.479 OA
ATOM     21  O   UNL     1      52.567  17.653  18.824  0.00  0.00    -0.237 OA
ENDROOT
BRANCH  15  16
ATOM     16  O   UNL     1      51.734  20.381  15.022  0.00  0.00    -0.497 OA
ATOM     17  H   UNL     1      51.167  19.755  14.549  0.00  0.00    +0.391 HD
ENDBRANCH  15  16
BRANCH   8   7
ATOM      7  O   UNL     1      52.994  16.251  20.618  0.00  0.00    -0.202 OA
BRANCH   7   6
ATOM      3  C   UNL     1      57.056  15.542  20.806  0.00  0.00    +0.110 A 
ATOM      4  C   UNL     1      56.369  15.324  19.621  0.00  0.00    -0.066 A 
ATOM      5  C   UNL     1      55.009  15.562  19.557  0.00  0.00    +0.037 A 
ATOM      6  C   UNL     1      54.332  16.017  20.680  0.00  0.00    +0.072 A 
ATOM     22  C   UNL     1      55.019  16.234  21.865  0.00  0.00    +0.049 A 
ATOM     23  C   UNL     1      56.378  15.992  21.929  0.00  0.00    -0.006 A 
BRANCH   3   2
ATOM      1  C   UNL     1      59.237  16.428  21.147  0.00  0.00    +0.232 C 
ATOM      2  O   UNL     1      58.394  15.308  20.868  0.00  0.00    -0.320 OA
ENDBRANCH   3   2
ENDBRANCH   7   6
ENDBRANCH   8   7
TORSDOF 4
ENDMDL
MODEL 9
REMARK VINA RESULT:      -5.3      5.851      7.435
REMARK  Name = ZINC95486297
REMARK  5 active torsions:
REMARK  status: ('A' for Active; 'I' for Inactive)
REMARK    1  A    between atoms: C1_1  and  O1_2
REMARK    2  A    between atoms: O1_2  and  C2_3
REMARK    3  A    between atoms: C5_6  and  O2_9
REMARK    4  A    between atoms: O2_9  and  C8_10
REMARK    5  A    between atoms: C14_17  and  O5_21
REMARK                            x       y       z     vdW  Elec       q    Type
REMARK                         _______ _______ _______ _____ _____    ______ ____
ROOT
ATOM      8  C   UNL     1      50.279  16.638  18.634  0.00  0.00    -0.012 A 
ATOM      9  C   UNL     1      49.421  17.257  19.489  0.00  0.00    +0.116 A 
ATOM     10  O   UNL     1      48.670  16.523  20.358  0.00  0.00    -0.681 OA
ATOM     11  C   UNL     1      49.314  18.666  19.470  0.00  0.00    +0.396 A 
ATOM     12  C   UNL     1      50.155  19.397  18.505  0.00  0.00    -0.252 A 
ATOM     13  C   UNL     1      50.115  20.789  18.417  0.00  0.00    +0.127 A 
ATOM     14  C   UNL     1      50.909  21.434  17.510  0.00  0.00    -0.076 A 
ATOM     15  C   UNL     1      51.756  20.711  16.676  0.00  0.00    +0.157 A 
ATOM     18  C   UNL     1      51.807  19.328  16.752  0.00  0.00    -0.055 A 
ATOM     19  C   UNL     1      51.008  18.659  17.667  0.00  0.00    +0.195 A 
ATOM     20  O   UNL     1      48.554  19.255  20.224  0.00  0.00    -0.479 OA
ATOM     21  O   UNL     1      51.044  17.314  17.764  0.00  0.00    -0.237 OA
ENDROOT
BRANCH  15  16
ATOM     16  O   UNL     1      52.539  21.365  15.780  0.00  0.00    -0.497 OA
ATOM     17  H   UNL     1      52.235  21.292  14.865  0.00  0.00    +0.391 HD
ENDBRANCH  15  16
BRANCH   8   7
ATOM      7  O   UNL     1      50.369  15.290  18.668  0.00  0.00    -0.202 OA
BRANCH   7   6
ATOM      3  C   UNL     1      49.669  13.217  15.167  0.00  0.00    +0.110 A 
ATOM      4  C   UNL     1      48.605  13.607  15.967  0.00  0.00    -0.066 A 
ATOM      5  C   UNL     1      48.838  14.301  17.138  0.00  0.00    +0.037 A 
ATOM      6  C   UNL     1      50.139  14.607  17.515  0.00  0.00    +0.072 A 
ATOM     22  C   UNL     1      51.203  14.217  16.716  0.00  0.00    +0.049 A 
ATOM     23  C   UNL     1      50.969  13.519  15.546  0.00  0.00    -0.006 A 
BRANCH   3   2
ATOM      1  C   UNL     1      50.381  12.712  12.955  0.00  0.00    +0.232 C 
ATOM      2  O   UNL     1      49.439  12.534  14.015  0.00  0.00    -0.320 OA
ENDBRANCH   3   2
ENDBRANCH   7   6
ENDBRANCH   8   7
TORSDOF 4
ENDMDL
