MODEL 1
REMARK VINA RESULT:      -6.5      0.000      0.000
REMARK  Name = ZINC95486277
REMARK  19 active torsions:
REMARK  status: ('A' for Active; 'I' for Inactive)
REMARK    1  A    between atoms: C1_1  and  C2_2
REMARK    2  A    between atoms: C3_4  and  O10_60
REMARK    3  A    between atoms: C4_6  and  O9_59
REMARK    4  A    between atoms: C5_8  and  O8_58
REMARK    5  A    between atoms: C6_10  and  O2_13
REMARK    6  A    between atoms: O2_13  and  C7_14
REMARK    7  A    between atoms: C7_14  and  C8_16
REMARK    8  A    between atoms: C7_14  and  C38_55
REMARK    9  A    between atoms: C8_16  and  C9_17
REMARK   10  A    between atoms: C9_17  and  C37_54
REMARK   11  A    between atoms: C13_22  and  C36_53
REMARK   12  A    between atoms: C15_25  and  C19_33
REMARK   13  A    between atoms: C16_26  and  O4_32
REMARK   14  A    between atoms: C18_29  and  O3_31
REMARK   15  A    between atoms: C23_37  and  C35_52
REMARK   16  A    between atoms: C26_40  and  C34_51
REMARK   17  A    between atoms: C29_44  and  C32_47
REMARK   18  A    between atoms: C29_44  and  C33_48
REMARK   19  A    between atoms: C38_55  and  C39_57
REMARK                            x       y       z     vdW  Elec       q    Type
REMARK                         _______ _______ _______ _____ _____    ______ ____
ROOT
ATOM     19  C   UNL     1      51.093  13.937  18.632  0.00  0.00    -0.022 C 
ATOM     20  C   UNL     1      52.300  13.057  19.044  0.00  0.00    +0.031 C 
ATOM     21  C   UNL     1      49.830  13.172  18.955  0.00  0.00    +0.008 C 
ATOM     22  C   UNL     1      49.542  13.076  20.443  0.00  0.00    +0.011 C 
ATOM     23  C   UNL     1      48.853  14.290  21.036  0.00  0.00    +0.004 C 
ATOM     24  C   UNL     1      47.685  14.818  20.224  0.00  0.00    -0.019 C 
ATOM     25  C   UNL     1      46.458  13.942  20.559  0.00  0.00    +0.011 C 
ATOM     26  C   UNL     1      47.924  14.798  18.719  0.00  0.00    +0.017 C 
ATOM     27  C   UNL     1      46.595  15.102  18.018  0.00  0.00    +0.070 C 
ATOM     28  C   UNL     1      45.995  16.357  18.589  0.00  0.00    -0.091 C 
ATOM     29  C   UNL     1      46.322  16.869  19.736  0.00  0.00    -0.078 C 
ATOM     30  C   UNL     1      45.691  18.178  20.162  0.00  0.00    +0.072 C 
ATOM     31  C   UNL     1      44.611  18.614  19.185  0.00  0.00    +0.019 C 
ATOM     32  C   UNL     1      43.975  19.931  19.633  0.00  0.00    -0.131 C 
ATOM     36  C   UNL     1      42.797  20.248  18.696  0.00  0.00    +0.008 C 
ATOM     37  C   UNL     1      43.451  19.824  21.060  0.00  0.00    +0.009 C 
ATOM     38  C   UNL     1      44.523  19.347  22.030  0.00  0.00    +0.007 C 
ATOM     39  C   UNL     1      45.129  18.021  21.572  0.00  0.00    -0.037 C 
ATOM     40  C   UNL     1      44.059  16.933  21.609  0.00  0.00    +0.010 C 
ATOM     41  C   UNL     1      46.281  17.635  22.504  0.00  0.00    +0.003 C 
ATOM     42  C   UNL     1      46.868  16.280  22.111  0.00  0.00    +0.014 C 
ATOM     43  C   UNL     1      47.331  16.244  20.663  0.00  0.00    +0.002 C 
ATOM     44  C   UNL     1      48.586  17.123  20.564  0.00  0.00    +0.017 C 
ATOM     45  C   UNL     1      48.571  13.540  18.181  0.00  0.00    -0.017 C 
ATOM     46  C   UNL     1      47.614  12.331  18.244  0.00  0.00    +0.023 C 
ATOM     47  C   UNL     1      48.934  13.678  16.694  0.00  0.00    +0.167 C 
ATOM     50  C   UNL     1      49.987  14.768  16.526  0.00  0.00    -0.045 C 
ATOM     51  C   UNL     1      51.282  14.247  17.147  0.00  0.00    +0.195 C 
ENDROOT
BRANCH  32  33
ATOM     33  C   UNL     1      44.977  21.051  19.534  0.00  0.00    +0.507 C 
ATOM     34  O   UNL     1      44.863  22.035  20.246  0.00  0.00    -0.688 OA
ATOM     35  O   UNL     1      45.901  20.976  18.743  0.00  0.00    -0.703 OA
ENDBRANCH  32  33
BRANCH  47  48
ATOM     48  O   UNL     1      47.799  13.913  15.880  0.00  0.00    -0.552 OA
ATOM     49  H   UNL     1      46.990  13.492  16.203  0.00  0.00    +0.370 HD
ENDBRANCH  47  48
BRANCH  51  52
ATOM     52  O   UNL     1      51.708  13.067  16.461  0.00  0.00    -0.560 OA
ATOM     53  H   UNL     1      52.548  12.710  16.777  0.00  0.00    +0.367 HD
ENDBRANCH  51  52
BRANCH  19  18
ATOM     18  C   UNL     1      51.220  15.250  19.408  0.00  0.00    +0.074 C 
BRANCH  18  14
ATOM     14  C   UNL     1      52.700  15.564  19.637  0.00  0.00    +0.144 C 
BRANCH  14  15
ATOM     15  C   UNL     1      52.926  15.872  21.096  0.00  0.00    +0.323 C 
ATOM     16  C   UNL     1      51.794  15.732  22.080  0.00  0.00    +0.066 C 
ATOM     17  O   UNL     1      54.016  16.228  21.476  0.00  0.00    -0.426 OA
ENDBRANCH  14  15
BRANCH  14  13
ATOM     13  O   UNL     1      53.075  16.694  18.848  0.00  0.00    -0.327 OA
BRANCH  13  12
ATOM      1  C   UNL     1      51.071  20.503  20.844  0.00  0.00    +0.074 C 
ATOM      2  C   UNL     1      50.989  19.567  19.637  0.00  0.00    +0.138 C 
ATOM      3  C   UNL     1      51.161  20.378  18.350  0.00  0.00    +0.165 C 
ATOM      6  C   UNL     1      51.137  19.427  17.149  0.00  0.00    +0.194 C 
ATOM      9  C   UNL     1      52.236  18.373  17.325  0.00  0.00    +0.146 C 
ATOM     12  C   UNL     1      52.021  17.640  18.652  0.00  0.00    +0.282 C 
ATOM     54  O   UNL     1      52.024  18.585  19.723  0.00  0.00    -0.378 OA
BRANCH   3   4
ATOM      4  O   UNL     1      50.095  21.322  18.234  0.00  0.00    -0.546 OA
ATOM      5  H   UNL     1      49.214  20.931  18.302  0.00  0.00    +0.381 HD
ENDBRANCH   3   4
BRANCH   6   7
ATOM      7  O   UNL     1      51.369  20.167  15.949  0.00  0.00    -0.546 OA
ATOM      8  H   UNL     1      50.576  20.308  15.414  0.00  0.00    +0.389 HD
ENDBRANCH   6   7
BRANCH   9  10
ATOM     10  O   UNL     1      52.178  17.439  16.245  0.00  0.00    -0.553 OA
ATOM     11  H   UNL     1      51.728  16.611  16.465  0.00  0.00    +0.401 HD
ENDBRANCH   9  10
ENDBRANCH  13  12
ENDBRANCH  14  13
ENDBRANCH  18  14
ENDBRANCH  19  18
TORSDOF 11
ENDMDL
MODEL 2
REMARK VINA RESULT:      -6.0      2.239      8.027
REMARK  Name = ZINC95486277
REMARK  19 active torsions:
REMARK  status: ('A' for Active; 'I' for Inactive)
REMARK    1  A    between atoms: C1_1  and  C2_2
REMARK    2  A    between atoms: C3_4  and  O10_60
REMARK    3  A    between atoms: C4_6  and  O9_59
REMARK    4  A    between atoms: C5_8  and  O8_58
REMARK    5  A    between atoms: C6_10  and  O2_13
REMARK    6  A    between atoms: O2_13  and  C7_14
REMARK    7  A    between atoms: C7_14  and  C8_16
REMARK    8  A    between atoms: C7_14  and  C38_55
REMARK    9  A    between atoms: C8_16  and  C9_17
REMARK   10  A    between atoms: C9_17  and  C37_54
REMARK   11  A    between atoms: C13_22  and  C36_53
REMARK   12  A    between atoms: C15_25  and  C19_33
REMARK   13  A    between atoms: C16_26  and  O4_32
REMARK   14  A    between atoms: C18_29  and  O3_31
REMARK   15  A    between atoms: C23_37  and  C35_52
REMARK   16  A    between atoms: C26_40  and  C34_51
REMARK   17  A    between atoms: C29_44  and  C32_47
REMARK   18  A    between atoms: C29_44  and  C33_48
REMARK   19  A    between atoms: C38_55  and  C39_57
REMARK                            x       y       z     vdW  Elec       q    Type
REMARK                         _______ _______ _______ _____ _____    ______ ____
ROOT
ATOM     19  C   UNL     1      46.994  19.006  20.977  0.00  0.00    -0.022 C 
ATOM     20  C   UNL     1      46.382  19.647  22.248  0.00  0.00    +0.031 C 
ATOM     21  C   UNL     1      48.359  18.468  21.341  0.00  0.00    +0.008 C 
ATOM     22  C   UNL     1      48.309  17.228  22.217  0.00  0.00    +0.011 C 
ATOM     23  C   UNL     1      48.093  15.928  21.467  0.00  0.00    +0.004 C 
ATOM     24  C   UNL     1      48.952  15.761  20.227  0.00  0.00    -0.019 C 
ATOM     25  C   UNL     1      50.343  15.278  20.691  0.00  0.00    +0.011 C 
ATOM     26  C   UNL     1      49.107  17.037  19.410  0.00  0.00    +0.017 C 
ATOM     27  C   UNL     1      50.190  16.801  18.351  0.00  0.00    +0.070 C 
ATOM     28  C   UNL     1      49.885  15.544  17.584  0.00  0.00    -0.091 C 
ATOM     29  C   UNL     1      49.087  14.608  18.000  0.00  0.00    -0.078 C 
ATOM     30  C   UNL     1      48.811  13.425  17.097  0.00  0.00    +0.072 C 
ATOM     31  C   UNL     1      49.683  13.465  15.853  0.00  0.00    +0.019 C 
ATOM     32  C   UNL     1      49.403  12.258  14.955  0.00  0.00    -0.131 C 
ATOM     36  C   UNL     1      50.409  12.270  13.792  0.00  0.00    +0.008 C 
ATOM     37  C   UNL     1      49.566  10.955  15.730  0.00  0.00    +0.009 C 
ATOM     38  C   UNL     1      48.723  10.934  16.998  0.00  0.00    +0.007 C 
ATOM     39  C   UNL     1      49.036  12.137  17.886  0.00  0.00    -0.037 C 
ATOM     40  C   UNL     1      50.479  12.048  18.376  0.00  0.00    +0.010 C 
ATOM     41  C   UNL     1      48.089  12.145  19.090  0.00  0.00    +0.003 C 
ATOM     42  C   UNL     1      48.417  13.303  20.033  0.00  0.00    +0.014 C 
ATOM     43  C   UNL     1      48.385  14.652  19.332  0.00  0.00    +0.002 C 
ATOM     44  C   UNL     1      46.916  14.966  19.016  0.00  0.00    +0.017 C 
ATOM     45  C   UNL     1      49.367  18.294  20.212  0.00  0.00    -0.017 C 
ATOM     46  C   UNL     1      50.776  18.291  20.842  0.00  0.00    +0.023 C 
ATOM     47  C   UNL     1      49.333  19.551  19.330  0.00  0.00    +0.167 C 
ATOM     50  C   UNL     1      47.933  19.732  18.754  0.00  0.00    -0.045 C 
ATOM     51  C   UNL     1      47.011  20.105  19.914  0.00  0.00    +0.195 C 
ENDROOT
BRANCH  32  33
ATOM     33  C   UNL     1      48.013  12.348  14.383  0.00  0.00    +0.507 C 
ATOM     34  O   UNL     1      47.714  13.277  13.652  0.00  0.00    -0.688 OA
ATOM     35  O   UNL     1      47.186  11.493  14.651  0.00  0.00    -0.703 OA
ENDBRANCH  32  33
BRANCH  47  48
ATOM     48  O   UNL     1      50.320  19.524  18.313  0.00  0.00    -0.552 OA
ATOM     49  H   UNL     1      50.884  20.310  18.292  0.00  0.00    +0.370 HD
ENDBRANCH  47  48
BRANCH  51  52
ATOM     52  O   UNL     1      47.444  21.334  20.502  0.00  0.00    -0.560 OA
ATOM     53  H   UNL     1      48.352  21.313  20.832  0.00  0.00    +0.367 HD
ENDBRANCH  51  52
BRANCH  19  18
ATOM     18  C   UNL     1      46.019  17.920  20.518  0.00  0.00    +0.074 C 
BRANCH  18  14
ATOM     14  C   UNL     1      44.604  18.279  20.978  0.00  0.00    +0.144 C 
BRANCH  14  15
ATOM     15  C   UNL     1      43.962  17.071  21.613  0.00  0.00    +0.323 C 
ATOM     16  C   UNL     1      44.677  15.745  21.604  0.00  0.00    +0.066 C 
ATOM     17  O   UNL     1      42.875  17.168  22.131  0.00  0.00    -0.426 OA
ENDBRANCH  14  15
BRANCH  14  13
ATOM     13  O   UNL     1      43.828  18.695  19.853  0.00  0.00    -0.327 OA
BRANCH  13  12
ATOM      1  C   UNL     1      44.884  23.313  19.600  0.00  0.00    +0.074 C 
ATOM      2  C   UNL     1      43.745  22.331  19.879  0.00  0.00    +0.138 C 
ATOM      3  C   UNL     1      42.606  22.574  18.884  0.00  0.00    +0.165 C 
ATOM      6  C   UNL     1      41.495  21.549  19.130  0.00  0.00    +0.194 C 
ATOM      9  C   UNL     1      42.082  20.138  19.010  0.00  0.00    +0.146 C 
ATOM     12  C   UNL     1      43.240  19.989  20.000  0.00  0.00    +0.282 C 
ATOM     54  O   UNL     1      44.223  20.991  19.735  0.00  0.00    -0.378 OA
BRANCH   3   4
ATOM      4  O   UNL     1      42.089  23.894  19.065  0.00  0.00    -0.546 OA
ATOM      5  H   UNL     1      42.438  24.543  18.439  0.00  0.00    +0.381 HD
ENDBRANCH   3   4
BRANCH   6   7
ATOM      7  O   UNL     1      40.460  21.723  18.161  0.00  0.00    -0.546 OA
ATOM      8  H   UNL     1      40.784  21.916  17.270  0.00  0.00    +0.389 HD
ENDBRANCH   6   7
BRANCH   9  10
ATOM     10  O   UNL     1      41.070  19.173  19.307  0.00  0.00    -0.553 OA
ATOM     11  H   UNL     1      40.780  19.179  20.230  0.00  0.00    +0.401 HD
ENDBRANCH   9  10
ENDBRANCH  13  12
ENDBRANCH  14  13
ENDBRANCH  18  14
ENDBRANCH  19  18
TORSDOF 11
ENDMDL
MODEL 3
REMARK VINA RESULT:      -5.8      2.644      5.663
REMARK  Name = ZINC95486277
REMARK  19 active torsions:
REMARK  status: ('A' for Active; 'I' for Inactive)
REMARK    1  A    between atoms: C1_1  and  C2_2
REMARK    2  A    between atoms: C3_4  and  O10_60
REMARK    3  A    between atoms: C4_6  and  O9_59
REMARK    4  A    between atoms: C5_8  and  O8_58
REMARK    5  A    between atoms: C6_10  and  O2_13
REMARK    6  A    between atoms: O2_13  and  C7_14
REMARK    7  A    between atoms: C7_14  and  C8_16
REMARK    8  A    between atoms: C7_14  and  C38_55
REMARK    9  A    between atoms: C8_16  and  C9_17
REMARK   10  A    between atoms: C9_17  and  C37_54
REMARK   11  A    between atoms: C13_22  and  C36_53
REMARK   12  A    between atoms: C15_25  and  C19_33
REMARK   13  A    between atoms: C16_26  and  O4_32
REMARK   14  A    between atoms: C18_29  and  O3_31
REMARK   15  A    between atoms: C23_37  and  C35_52
REMARK   16  A    between atoms: C26_40  and  C34_51
REMARK   17  A    between atoms: C29_44  and  C32_47
REMARK   18  A    between atoms: C29_44  and  C33_48
REMARK   19  A    between atoms: C38_55  and  C39_57
REMARK                            x       y       z     vdW  Elec       q    Type
REMARK                         _______ _______ _______ _____ _____    ______ ____
ROOT
ATOM     19  C   UNL     1      51.959  12.516  18.728  0.00  0.00    -0.022 C 
ATOM     20  C   UNL     1      53.153  11.752  18.102  0.00  0.00    +0.031 C 
ATOM     21  C   UNL     1      52.494  13.369  19.855  0.00  0.00    +0.008 C 
ATOM     22  C   UNL     1      53.303  14.564  19.381  0.00  0.00    +0.011 C 
ATOM     23  C   UNL     1      52.477  15.770  18.977  0.00  0.00    +0.004 C 
ATOM     24  C   UNL     1      51.368  16.134  19.947  0.00  0.00    -0.019 C 
ATOM     25  C   UNL     1      52.008  16.941  21.098  0.00  0.00    +0.011 C 
ATOM     26  C   UNL     1      50.635  14.929  20.522  0.00  0.00    +0.017 C 
ATOM     27  C   UNL     1      49.735  15.415  21.664  0.00  0.00    +0.070 C 
ATOM     28  C   UNL     1      48.882  16.558  21.187  0.00  0.00    -0.091 C 
ATOM     29  C   UNL     1      49.139  17.275  20.136  0.00  0.00    -0.078 C 
ATOM     30  C   UNL     1      48.158  18.353  19.726  0.00  0.00    +0.072 C 
ATOM     31  C   UNL     1      47.056  18.519  20.759  0.00  0.00    +0.019 C 
ATOM     32  C   UNL     1      46.079  19.617  20.338  0.00  0.00    -0.131 C 
ATOM     36  C   UNL     1      45.075  19.843  21.480  0.00  0.00    +0.008 C 
ATOM     37  C   UNL     1      46.816  20.925  20.068  0.00  0.00    +0.009 C 
ATOM     38  C   UNL     1      47.947  20.748  19.064  0.00  0.00    +0.007 C 
ATOM     39  C   UNL     1      48.919  19.660  19.517  0.00  0.00    -0.037 C 
ATOM     40  C   UNL     1      49.608  20.097  20.807  0.00  0.00    +0.010 C 
ATOM     41  C   UNL     1      49.972  19.429  18.429  0.00  0.00    +0.003 C 
ATOM     42  C   UNL     1      50.999  18.390  18.878  0.00  0.00    +0.014 C 
ATOM     43  C   UNL     1      50.356  17.069  19.274  0.00  0.00    +0.002 C 
ATOM     44  C   UNL     1      49.845  16.408  17.986  0.00  0.00    +0.017 C 
ATOM     45  C   UNL     1      51.517  13.775  20.951  0.00  0.00    -0.017 C 
ATOM     46  C   UNL     1      52.343  14.122  22.208  0.00  0.00    +0.023 C 
ATOM     47  C   UNL     1      50.691  12.544  21.350  0.00  0.00    +0.167 C 
ATOM     50  C   UNL     1      49.927  12.028  20.135  0.00  0.00    -0.045 C 
ATOM     51  C   UNL     1      50.955  11.449  19.165  0.00  0.00    +0.195 C 
ENDROOT
BRANCH  32  33
ATOM     33  C   UNL     1      45.317  19.192  19.111  0.00  0.00    +0.507 C 
ATOM     34  O   UNL     1      45.290  18.017  18.787  0.00  0.00    -0.688 OA
ATOM     35  O   UNL     1      44.726  20.022  18.441  0.00  0.00    -0.703 OA
ENDBRANCH  32  33
BRANCH  47  48
ATOM     48  O   UNL     1      49.827  12.803  22.443  0.00  0.00    -0.552 OA
ATOM     49  H   UNL     1      49.693  13.744  22.623  0.00  0.00    +0.370 HD
ENDBRANCH  47  48
BRANCH  51  52
ATOM     52  O   UNL     1      51.648  10.363  19.785  0.00  0.00    -0.560 OA
ATOM     53  H   UNL     1      52.548  10.233  19.458  0.00  0.00    +0.367 HD
ENDBRANCH  51  52
BRANCH  19  18
ATOM     18  C   UNL     1      51.320  13.332  17.602  0.00  0.00    +0.074 C 
BRANCH  18  14
ATOM     14  C   UNL     1      50.402  12.429  16.777  0.00  0.00    +0.144 C 
BRANCH  14  15
ATOM     15  C   UNL     1      51.106  12.025  15.506  0.00  0.00    +0.323 C 
ATOM     16  C   UNL     1      51.718  13.076  14.617  0.00  0.00    +0.066 C 
ATOM     17  O   UNL     1      51.181  10.858  15.202  0.00  0.00    -0.426 OA
ENDBRANCH  14  15
BRANCH  14  13
ATOM     13  O   UNL     1      49.203  13.136  16.453  0.00  0.00    -0.327 OA
BRANCH  13  12
ATOM      1  C   UNL     1      46.210  14.563  19.846  0.00  0.00    +0.074 C 
ATOM      2  C   UNL     1      46.530  13.400  18.904  0.00  0.00    +0.138 C 
ATOM      3  C   UNL     1      45.321  13.125  18.005  0.00  0.00    +0.165 C 
ATOM      6  C   UNL     1      45.669  12.000  17.025  0.00  0.00    +0.194 C 
ATOM      9  C   UNL     1      46.911  12.402  16.224  0.00  0.00    +0.146 C 
ATOM     12  C   UNL     1      48.058  12.705  17.192  0.00  0.00    +0.282 C 
ATOM     54  O   UNL     1      47.658  13.738  18.094  0.00  0.00    -0.378 OA
BRANCH   3   4
ATOM      4  O   UNL     1      44.207  12.732  18.809  0.00  0.00    -0.546 OA
ATOM      5  H   UNL     1      44.432  12.116  19.520  0.00  0.00    +0.381 HD
ENDBRANCH   3   4
BRANCH   6   7
ATOM      7  O   UNL     1      44.572  11.785  16.135  0.00  0.00    -0.546 OA
ATOM      8  H   UNL     1      43.914  11.158  16.465  0.00  0.00    +0.389 HD
ENDBRANCH   6   7
BRANCH   9  10
ATOM     10  O   UNL     1      47.287  11.331  15.355  0.00  0.00    -0.553 OA
ATOM     11  H   UNL     1      48.215  11.353  15.083  0.00  0.00    +0.401 HD
ENDBRANCH   9  10
ENDBRANCH  13  12
ENDBRANCH  14  13
ENDBRANCH  18  14
ENDBRANCH  19  18
TORSDOF 11
ENDMDL
MODEL 4
REMARK VINA RESULT:      -5.7      1.556      2.139
REMARK  Name = ZINC95486277
REMARK  19 active torsions:
REMARK  status: ('A' for Active; 'I' for Inactive)
REMARK    1  A    between atoms: C1_1  and  C2_2
REMARK    2  A    between atoms: C3_4  and  O10_60
REMARK    3  A    between atoms: C4_6  and  O9_59
REMARK    4  A    between atoms: C5_8  and  O8_58
REMARK    5  A    between atoms: C6_10  and  O2_13
REMARK    6  A    between atoms: O2_13  and  C7_14
REMARK    7  A    between atoms: C7_14  and  C8_16
REMARK    8  A    between atoms: C7_14  and  C38_55
REMARK    9  A    between atoms: C8_16  and  C9_17
REMARK   10  A    between atoms: C9_17  and  C37_54
REMARK   11  A    between atoms: C13_22  and  C36_53
REMARK   12  A    between atoms: C15_25  and  C19_33
REMARK   13  A    between atoms: C16_26  and  O4_32
REMARK   14  A    between atoms: C18_29  and  O3_31
REMARK   15  A    between atoms: C23_37  and  C35_52
REMARK   16  A    between atoms: C26_40  and  C34_51
REMARK   17  A    between atoms: C29_44  and  C32_47
REMARK   18  A    between atoms: C29_44  and  C33_48
REMARK   19  A    between atoms: C38_55  and  C39_57
REMARK                            x       y       z     vdW  Elec       q    Type
REMARK                         _______ _______ _______ _____ _____    ______ ____
ROOT
ATOM     19  C   UNL     1      49.995  12.224  18.070  0.00  0.00    -0.022 C 
ATOM     20  C   UNL     1      50.754  10.894  18.303  0.00  0.00    +0.031 C 
ATOM     21  C   UNL     1      48.514  11.924  18.102  0.00  0.00    +0.008 C 
ATOM     22  C   UNL     1      47.989  11.604  19.491  0.00  0.00    +0.011 C 
ATOM     23  C   UNL     1      47.672  12.816  20.345  0.00  0.00    +0.004 C 
ATOM     24  C   UNL     1      46.889  13.906  19.636  0.00  0.00    -0.019 C 
ATOM     25  C   UNL     1      45.403  13.490  19.652  0.00  0.00    +0.011 C 
ATOM     26  C   UNL     1      47.332  14.144  18.198  0.00  0.00    +0.017 C 
ATOM     27  C   UNL     1      46.307  15.066  17.526  0.00  0.00    +0.070 C 
ATOM     28  C   UNL     1      46.090  16.288  18.376  0.00  0.00    -0.091 C 
ATOM     29  C   UNL     1      46.395  16.368  19.635  0.00  0.00    -0.078 C 
ATOM     30  C   UNL     1      46.189  17.683  20.357  0.00  0.00    +0.072 C 
ATOM     31  C   UNL     1      45.482  18.695  19.471  0.00  0.00    +0.019 C 
ATOM     32  C   UNL     1      45.271  20.014  20.215  0.00  0.00    -0.131 C 
ATOM     36  C   UNL     1      44.427  20.946  19.330  0.00  0.00    +0.008 C 
ATOM     37  C   UNL     1      44.532  19.785  21.529  0.00  0.00    +0.009 C 
ATOM     38  C   UNL     1      45.220  18.740  22.398  0.00  0.00    +0.007 C 
ATOM     39  C   UNL     1      45.400  17.426  21.639  0.00  0.00    -0.037 C 
ATOM     40  C   UNL     1      44.032  16.829  21.320  0.00  0.00    +0.010 C 
ATOM     41  C   UNL     1      46.198  16.442  22.500  0.00  0.00    +0.003 C 
ATOM     42  C   UNL     1      46.342  15.094  21.794  0.00  0.00    +0.014 C 
ATOM     43  C   UNL     1      46.979  15.222  20.418  0.00  0.00    +0.002 C 
ATOM     44  C   UNL     1      48.457  15.577  20.632  0.00  0.00    +0.017 C 
ATOM     45  C   UNL     1      47.587  12.895  17.382  0.00  0.00    -0.017 C 
ATOM     46  C   UNL     1      46.279  12.142  17.063  0.00  0.00    +0.023 C 
ATOM     47  C   UNL     1      48.195  13.225  16.010  0.00  0.00    +0.167 C 
ATOM     50  C   UNL     1      49.568  13.860  16.202  0.00  0.00    -0.045 C 
ATOM     51  C   UNL     1      50.500  12.773  16.735  0.00  0.00    +0.195 C 
ENDROOT
BRANCH  32  33
ATOM     33  C   UNL     1      46.596  20.679  20.478  0.00  0.00    +0.507 C 
ATOM     34  O   UNL     1      46.703  21.487  21.386  0.00  0.00    -0.688 OA
ATOM     35  O   UNL     1      47.563  20.411  19.785  0.00  0.00    -0.703 OA
ENDBRANCH  32  33
BRANCH  47  48
ATOM     48  O   UNL     1      47.344  14.040  15.223  0.00  0.00    -0.552 OA
ATOM     49  H   UNL     1      47.772  14.412  14.440  0.00  0.00    +0.370 HD
ENDBRANCH  47  48
BRANCH  51  52
ATOM     52  O   UNL     1      50.598  11.709  15.785  0.00  0.00    -0.560 OA
ATOM     53  H   UNL     1      51.251  11.863  15.089  0.00  0.00    +0.367 HD
ENDBRANCH  51  52
BRANCH  19  18
ATOM     18  C   UNL     1      50.441  13.185  19.175  0.00  0.00    +0.074 C 
BRANCH  18  14
ATOM     14  C   UNL     1      51.822  13.748  18.832  0.00  0.00    +0.144 C 
BRANCH  14  15
ATOM     15  C   UNL     1      52.887  12.862  19.428  0.00  0.00    +0.323 C 
ATOM     16  C   UNL     1      52.799  12.447  20.873  0.00  0.00    +0.066 C 
ATOM     17  O   UNL     1      53.809  12.485  18.746  0.00  0.00    -0.426 OA
ENDBRANCH  14  15
BRANCH  14  13
ATOM     13  O   UNL     1      51.944  15.067  19.367  0.00  0.00    -0.327 OA
BRANCH  13  12
ATOM      1  C   UNL     1      48.847  17.696  16.918  0.00  0.00    +0.074 C 
ATOM      2  C   UNL     1      50.341  17.444  17.131  0.00  0.00    +0.138 C 
ATOM      3  C   UNL     1      51.015  18.738  17.596  0.00  0.00    +0.165 C 
ATOM      6  C   UNL     1      52.498  18.465  17.864  0.00  0.00    +0.194 C 
ATOM      9  C   UNL     1      52.619  17.341  18.898  0.00  0.00    +0.146 C 
ATOM     12  C   UNL     1      51.883  16.101  18.382  0.00  0.00    +0.282 C 
ATOM     54  O   UNL     1      50.518  16.432  18.124  0.00  0.00    -0.378 OA
BRANCH   3   4
ATOM      4  O   UNL     1      50.888  19.735  16.580  0.00  0.00    -0.546 OA
ATOM      5  H   UNL     1      51.297  20.581  16.806  0.00  0.00    +0.381 HD
ENDBRANCH   3   4
BRANCH   6   7
ATOM      7  O   UNL     1      53.119  19.649  18.367  0.00  0.00    -0.546 OA
ATOM      8  H   UNL     1      53.362  19.599  19.302  0.00  0.00    +0.389 HD
ENDBRANCH   6   7
BRANCH   9  10
ATOM     10  O   UNL     1      53.999  17.028  19.105  0.00  0.00    -0.553 OA
ATOM     11  H   UNL     1      54.519  16.987  18.290  0.00  0.00    +0.401 HD
ENDBRANCH   9  10
ENDBRANCH  13  12
ENDBRANCH  14  13
ENDBRANCH  18  14
ENDBRANCH  19  18
TORSDOF 11
ENDMDL
MODEL 5
REMARK VINA RESULT:      -5.5      2.125      7.436
REMARK  Name = ZINC95486277
REMARK  19 active torsions:
REMARK  status: ('A' for Active; 'I' for Inactive)
REMARK    1  A    between atoms: C1_1  and  C2_2
REMARK    2  A    between atoms: C3_4  and  O10_60
REMARK    3  A    between atoms: C4_6  and  O9_59
REMARK    4  A    between atoms: C5_8  and  O8_58
REMARK    5  A    between atoms: C6_10  and  O2_13
REMARK    6  A    between atoms: O2_13  and  C7_14
REMARK    7  A    between atoms: C7_14  and  C8_16
REMARK    8  A    between atoms: C7_14  and  C38_55
REMARK    9  A    between atoms: C8_16  and  C9_17
REMARK   10  A    between atoms: C9_17  and  C37_54
REMARK   11  A    between atoms: C13_22  and  C36_53
REMARK   12  A    between atoms: C15_25  and  C19_33
REMARK   13  A    between atoms: C16_26  and  O4_32
REMARK   14  A    between atoms: C18_29  and  O3_31
REMARK   15  A    between atoms: C23_37  and  C35_52
REMARK   16  A    between atoms: C26_40  and  C34_51
REMARK   17  A    between atoms: C29_44  and  C32_47
REMARK   18  A    between atoms: C29_44  and  C33_48
REMARK   19  A    between atoms: C38_55  and  C39_57
REMARK                            x       y       z     vdW  Elec       q    Type
REMARK                         _______ _______ _______ _____ _____    ______ ____
ROOT
ATOM     19  C   UNL     1      49.609  19.151  20.162  0.00  0.00    -0.022 C 
ATOM     20  C   UNL     1      49.356  20.031  21.412  0.00  0.00    +0.031 C 
ATOM     21  C   UNL     1      50.828  18.300  20.433  0.00  0.00    +0.008 C 
ATOM     22  C   UNL     1      50.582  17.192  21.443  0.00  0.00    +0.011 C 
ATOM     23  C   UNL     1      49.945  15.941  20.872  0.00  0.00    +0.004 C 
ATOM     24  C   UNL     1      50.558  15.453  19.572  0.00  0.00    -0.019 C 
ATOM     25  C   UNL     1      51.830  14.656  19.933  0.00  0.00    +0.011 C 
ATOM     26  C   UNL     1      50.922  16.573  18.605  0.00  0.00    +0.017 C 
ATOM     27  C   UNL     1      51.757  15.973  17.468  0.00  0.00    +0.070 C 
ATOM     28  C   UNL     1      51.043  14.785  16.885  0.00  0.00    -0.091 C 
ATOM     29  C   UNL     1      50.096  14.132  17.487  0.00  0.00    -0.078 C 
ATOM     30  C   UNL     1      49.410  12.997  16.757  0.00  0.00    +0.072 C 
ATOM     31  C   UNL     1      50.088  12.704  15.429  0.00  0.00    +0.019 C 
ATOM     32  C   UNL     1      49.394  11.548  14.709  0.00  0.00    -0.131 C 
ATOM     36  C   UNL     1      50.204  11.199  13.449  0.00  0.00    +0.008 C 
ATOM     37  C   UNL     1      49.322  10.314  15.602  0.00  0.00    +0.009 C 
ATOM     38  C   UNL     1      48.679  10.619  16.949  0.00  0.00    +0.007 C 
ATOM     39  C   UNL     1      49.404  11.763  17.657  0.00  0.00    -0.037 C 
ATOM     40  C   UNL     1      50.829  11.332  17.994  0.00  0.00    +0.010 C 
ATOM     41  C   UNL     1      48.660  12.119  18.948  0.00  0.00    +0.003 C 
ATOM     42  C   UNL     1      49.395  13.218  19.714  0.00  0.00    +0.014 C 
ATOM     43  C   UNL     1      49.613  14.467  18.874  0.00  0.00    +0.002 C 
ATOM     44  C   UNL     1      48.244  15.135  18.686  0.00  0.00    +0.017 C 
ATOM     45  C   UNL     1      51.598  17.775  19.229  0.00  0.00    -0.017 C 
ATOM     46  C   UNL     1      53.031  17.447  19.698  0.00  0.00    +0.023 C 
ATOM     47  C   UNL     1      51.767  18.921  18.220  0.00  0.00    +0.167 C 
ATOM     50  C   UNL     1      50.395  19.421  17.783  0.00  0.00    -0.045 C 
ATOM     51  C   UNL     1      49.762  20.118  18.987  0.00  0.00    +0.195 C 
ENDROOT
BRANCH  32  33
ATOM     33  C   UNL     1      48.008  11.959  14.284  0.00  0.00    +0.507 C 
ATOM     34  O   UNL     1      47.038  11.346  14.697  0.00  0.00    -0.688 OA
ATOM     35  O   UNL     1      47.856  12.903  13.529  0.00  0.00    -0.703 OA
ENDBRANCH  32  33
BRANCH  47  48
ATOM     48  O   UNL     1      52.569  18.551  17.112  0.00  0.00    -0.552 OA
ATOM     49  H   UNL     1      52.246  17.774  16.635  0.00  0.00    +0.370 HD
ENDBRANCH  47  48
BRANCH  51  52
ATOM     52  O   UNL     1      50.568  21.230  19.382  0.00  0.00    -0.560 OA
ATOM     53  H   UNL     1      51.144  21.049  20.137  0.00  0.00    +0.367 HD
ENDBRANCH  51  52
BRANCH  19  18
ATOM     18  C   UNL     1      48.337  18.331  19.936  0.00  0.00    +0.074 C 
BRANCH  18  14
ATOM     14  C   UNL     1      47.189  18.939  20.745  0.00  0.00    +0.144 C 
BRANCH  14  15
ATOM     15  C   UNL     1      46.379  17.833  21.374  0.00  0.00    +0.323 C 
ATOM     16  C   UNL     1      46.958  17.025  22.505  0.00  0.00    +0.066 C 
ATOM     17  O   UNL     1      45.265  17.598  20.971  0.00  0.00    -0.426 OA
ENDBRANCH  14  15
BRANCH  14  13
ATOM     13  O   UNL     1      46.353  19.710  19.880  0.00  0.00    -0.327 OA
BRANCH  13  12
ATOM      1  C   UNL     1      47.571  23.485  22.483  0.00  0.00    +0.074 C 
ATOM      2  C   UNL     1      46.384  22.792  21.812  0.00  0.00    +0.138 C 
ATOM      3  C   UNL     1      45.743  23.743  20.798  0.00  0.00    +0.165 C 
ATOM      6  C   UNL     1      44.593  23.022  20.088  0.00  0.00    +0.194 C 
ATOM      9  C   UNL     1      45.133  21.748  19.430  0.00  0.00    +0.146 C 
ATOM     12  C   UNL     1      45.797  20.874  20.497  0.00  0.00    +0.282 C 
ATOM     54  O   UNL     1      46.836  21.614  21.139  0.00  0.00    -0.378 OA
BRANCH   3   4
ATOM      4  O   UNL     1      45.239  24.896  21.476  0.00  0.00    -0.546 OA
ATOM      5  H   UNL     1      44.320  24.812  21.764  0.00  0.00    +0.381 HD
ENDBRANCH   3   4
BRANCH   6   7
ATOM      7  O   UNL     1      44.035  23.879  19.089  0.00  0.00    -0.546 OA
ATOM      8  H   UNL     1      44.395  24.776  19.096  0.00  0.00    +0.389 HD
ENDBRANCH   6   7
BRANCH   9  10
ATOM     10  O   UNL     1      44.057  21.030  18.823  0.00  0.00    -0.553 OA
ATOM     11  H   UNL     1      43.291  21.580  18.604  0.00  0.00    +0.401 HD
ENDBRANCH   9  10
ENDBRANCH  13  12
ENDBRANCH  14  13
ENDBRANCH  18  14
ENDBRANCH  19  18
TORSDOF 11
ENDMDL
MODEL 6
REMARK VINA RESULT:      -5.1      2.195      4.007
REMARK  Name = ZINC95486277
REMARK  19 active torsions:
REMARK  status: ('A' for Active; 'I' for Inactive)
REMARK    1  A    between atoms: C1_1  and  C2_2
REMARK    2  A    between atoms: C3_4  and  O10_60
REMARK    3  A    between atoms: C4_6  and  O9_59
REMARK    4  A    between atoms: C5_8  and  O8_58
REMARK    5  A    between atoms: C6_10  and  O2_13
REMARK    6  A    between atoms: O2_13  and  C7_14
REMARK    7  A    between atoms: C7_14  and  C8_16
REMARK    8  A    between atoms: C7_14  and  C38_55
REMARK    9  A    between atoms: C8_16  and  C9_17
REMARK   10  A    between atoms: C9_17  and  C37_54
REMARK   11  A    between atoms: C13_22  and  C36_53
REMARK   12  A    between atoms: C15_25  and  C19_33
REMARK   13  A    between atoms: C16_26  and  O4_32
REMARK   14  A    between atoms: C18_29  and  O3_31
REMARK   15  A    between atoms: C23_37  and  C35_52
REMARK   16  A    between atoms: C26_40  and  C34_51
REMARK   17  A    between atoms: C29_44  and  C32_47
REMARK   18  A    between atoms: C29_44  and  C33_48
REMARK   19  A    between atoms: C38_55  and  C39_57
REMARK                            x       y       z     vdW  Elec       q    Type
REMARK                         _______ _______ _______ _____ _____    ______ ____
ROOT
ATOM     19  C   UNL     1      50.624  13.078  18.074  0.00  0.00    -0.022 C 
ATOM     20  C   UNL     1      51.711  12.016  18.379  0.00  0.00    +0.031 C 
ATOM     21  C   UNL     1      49.279  12.470  18.396  0.00  0.00    +0.008 C 
ATOM     22  C   UNL     1      49.026  12.309  19.885  0.00  0.00    +0.011 C 
ATOM     23  C   UNL     1      48.529  13.560  20.584  0.00  0.00    +0.004 C 
ATOM     24  C   UNL     1      47.420  14.297  19.855  0.00  0.00    -0.019 C 
ATOM     25  C   UNL     1      46.095  13.574  20.180  0.00  0.00    +0.011 C 
ATOM     26  C   UNL     1      47.608  14.351  18.344  0.00  0.00    +0.017 C 
ATOM     27  C   UNL     1      46.313  14.881  17.718  0.00  0.00    +0.070 C 
ATOM     28  C   UNL     1      45.909  16.162  18.394  0.00  0.00    -0.091 C 
ATOM     29  C   UNL     1      46.339  16.543  19.558  0.00  0.00    -0.078 C 
ATOM     30  C   UNL     1      45.907  17.892  20.093  0.00  0.00    +0.072 C 
ATOM     31  C   UNL     1      44.868  18.538  19.191  0.00  0.00    +0.019 C 
ATOM     32  C   UNL     1      44.433  19.893  19.749  0.00  0.00    -0.131 C 
ATOM     36  C   UNL     1      43.282  20.432  18.883  0.00  0.00    +0.008 C 
ATOM     37  C   UNL     1      43.943  19.758  21.186  0.00  0.00    +0.009 C 
ATOM     38  C   UNL     1      44.969  19.074  22.079  0.00  0.00    +0.007 C 
ATOM     39  C   UNL     1      45.371  17.714  21.512  0.00  0.00    -0.037 C 
ATOM     40  C   UNL     1      44.163  16.780  21.520  0.00  0.00    +0.010 C 
ATOM     41  C   UNL     1      46.487  17.110  22.370  0.00  0.00    +0.003 C 
ATOM     42  C   UNL     1      46.870  15.719  21.865  0.00  0.00    +0.014 C 
ATOM     43  C   UNL     1      47.279  15.723  20.400  0.00  0.00    +0.002 C 
ATOM     44  C   UNL     1      48.640  16.429  20.310  0.00  0.00    +0.017 C 
ATOM     45  C   UNL     1      48.059  13.059  17.698  0.00  0.00    -0.017 C 
ATOM     46  C   UNL     1      46.948  11.989  17.720  0.00  0.00    +0.023 C 
ATOM     47  C   UNL     1      48.393  13.250  16.211  0.00  0.00    +0.167 C 
ATOM     50  C   UNL     1      49.579  14.197  16.073  0.00  0.00    -0.045 C 
ATOM     51  C   UNL     1      50.809  13.463  16.606  0.00  0.00    +0.195 C 
ENDROOT
BRANCH  32  33
ATOM     33  C   UNL     1      45.576  20.872  19.684  0.00  0.00    +0.507 C 
ATOM     34  O   UNL     1      45.740  21.678  20.585  0.00  0.00    -0.688 OA
ATOM     35  O   UNL     1      46.337  20.860  18.732  0.00  0.00    -0.703 OA
ENDBRANCH  32  33
BRANCH  47  48
ATOM     48  O   UNL     1      47.276  13.694  15.460  0.00  0.00    -0.552 OA
ATOM     49  H   UNL     1      47.452  13.790  14.514  0.00  0.00    +0.370 HD
ENDBRANCH  47  48
BRANCH  51  52
ATOM     52  O   UNL     1      51.047  12.288  15.828  0.00  0.00    -0.560 OA
ATOM     53  H   UNL     1      50.542  12.253  15.004  0.00  0.00    +0.367 HD
ENDBRANCH  51  52
BRANCH  19  18
ATOM     18  C   UNL     1      50.955  14.303  18.929  0.00  0.00    +0.074 C 
BRANCH  18  14
ATOM     14  C   UNL     1      52.055  13.944  19.930  0.00  0.00    +0.144 C 
BRANCH  14  15
ATOM     15  C   UNL     1      51.970  14.867  21.120  0.00  0.00    +0.323 C 
ATOM     16  C   UNL     1      51.743  14.300  22.497  0.00  0.00    +0.066 C 
ATOM     17  O   UNL     1      52.087  16.059  20.969  0.00  0.00    -0.426 OA
ENDBRANCH  14  15
BRANCH  14  13
ATOM     13  O   UNL     1      53.332  14.088  19.306  0.00  0.00    -0.327 OA
BRANCH  13  12
ATOM      1  C   UNL     1      55.920  10.480  20.975  0.00  0.00    +0.074 C 
ATOM      2  C   UNL     1      55.761  12.000  21.029  0.00  0.00    +0.138 C 
ATOM      3  C   UNL     1      57.058  12.666  20.562  0.00  0.00    +0.165 C 
ATOM      6  C   UNL     1      56.871  14.187  20.561  0.00  0.00    +0.194 C 
ATOM      9  C   UNL     1      55.679  14.543  19.667  0.00  0.00    +0.146 C 
ATOM     12  C   UNL     1      54.435  13.804  20.169  0.00  0.00    +0.282 C 
ATOM     54  O   UNL     1      54.687  12.398  20.173  0.00  0.00    -0.378 OA
BRANCH   3   4
ATOM      4  O   UNL     1      58.122  12.315  21.449  0.00  0.00    -0.546 OA
ATOM      5  H   UNL     1      58.782  13.011  21.566  0.00  0.00    +0.381 HD
ENDBRANCH   3   4
BRANCH   6   7
ATOM      7  O   UNL     1      58.052  14.814  20.058  0.00  0.00    -0.546 OA
ATOM      8  H   UNL     1      58.742  14.944  20.723  0.00  0.00    +0.389 HD
ENDBRANCH   6   7
BRANCH   9  10
ATOM     10  O   UNL     1      55.451  15.953  19.714  0.00  0.00    -0.553 OA
ATOM     11  H   UNL     1      54.807  16.225  20.383  0.00  0.00    +0.401 HD
ENDBRANCH   9  10
ENDBRANCH  13  12
ENDBRANCH  14  13
ENDBRANCH  18  14
ENDBRANCH  19  18
TORSDOF 11
ENDMDL
MODEL 7
REMARK VINA RESULT:      -4.7      1.759      2.735
REMARK  Name = ZINC95486277
REMARK  19 active torsions:
REMARK  status: ('A' for Active; 'I' for Inactive)
REMARK    1  A    between atoms: C1_1  and  C2_2
REMARK    2  A    between atoms: C3_4  and  O10_60
REMARK    3  A    between atoms: C4_6  and  O9_59
REMARK    4  A    between atoms: C5_8  and  O8_58
REMARK    5  A    between atoms: C6_10  and  O2_13
REMARK    6  A    between atoms: O2_13  and  C7_14
REMARK    7  A    between atoms: C7_14  and  C8_16
REMARK    8  A    between atoms: C7_14  and  C38_55
REMARK    9  A    between atoms: C8_16  and  C9_17
REMARK   10  A    between atoms: C9_17  and  C37_54
REMARK   11  A    between atoms: C13_22  and  C36_53
REMARK   12  A    between atoms: C15_25  and  C19_33
REMARK   13  A    between atoms: C16_26  and  O4_32
REMARK   14  A    between atoms: C18_29  and  O3_31
REMARK   15  A    between atoms: C23_37  and  C35_52
REMARK   16  A    between atoms: C26_40  and  C34_51
REMARK   17  A    between atoms: C29_44  and  C32_47
REMARK   18  A    between atoms: C29_44  and  C33_48
REMARK   19  A    between atoms: C38_55  and  C39_57
REMARK                            x       y       z     vdW  Elec       q    Type
REMARK                         _______ _______ _______ _____ _____    ______ ____
ROOT
ATOM     19  C   UNL     1      50.289  11.893  17.190  0.00  0.00    -0.022 C 
ATOM     20  C   UNL     1      51.064  10.557  17.315  0.00  0.00    +0.031 C 
ATOM     21  C   UNL     1      48.816  11.590  17.340  0.00  0.00    +0.008 C 
ATOM     22  C   UNL     1      48.413  11.227  18.759  0.00  0.00    +0.011 C 
ATOM     23  C   UNL     1      48.172  12.411  19.675  0.00  0.00    +0.004 C 
ATOM     24  C   UNL     1      47.333  13.521  19.070  0.00  0.00    -0.019 C 
ATOM     25  C   UNL     1      45.852  13.103  19.201  0.00  0.00    +0.011 C 
ATOM     26  C   UNL     1      47.649  13.804  17.607  0.00  0.00    +0.017 C 
ATOM     27  C   UNL     1      46.572  14.745  17.055  0.00  0.00    +0.070 C 
ATOM     28  C   UNL     1      46.431  15.940  17.958  0.00  0.00    -0.091 C 
ATOM     29  C   UNL     1      46.843  15.981  19.188  0.00  0.00    -0.078 C 
ATOM     30  C   UNL     1      46.702  17.273  19.965  0.00  0.00    +0.072 C 
ATOM     31  C   UNL     1      45.923  18.311  19.175  0.00  0.00    +0.019 C 
ATOM     32  C   UNL     1      45.778  19.605  19.975  0.00  0.00    -0.131 C 
ATOM     36  C   UNL     1      44.862  20.563  19.196  0.00  0.00    +0.008 C 
ATOM     37  C   UNL     1      45.155  19.334  21.340  0.00  0.00    +0.009 C 
ATOM     38  C   UNL     1      45.914  18.264  22.114  0.00  0.00    +0.007 C 
ATOM     39  C   UNL     1      46.026  16.975  21.302  0.00  0.00    -0.037 C 
ATOM     40  C   UNL     1      44.635  16.386  21.084  0.00  0.00    +0.010 C 
ATOM     41  C   UNL     1      46.894  15.966  22.060  0.00  0.00    +0.003 C 
ATOM     42  C   UNL     1      46.975  14.641  21.302  0.00  0.00    +0.014 C 
ATOM     43  C   UNL     1      47.491  14.812  19.882  0.00  0.00    +0.002 C 
ATOM     44  C   UNL     1      48.983  15.162  19.978  0.00  0.00    +0.017 C 
ATOM     45  C   UNL     1      47.832  12.581  16.733  0.00  0.00    -0.017 C 
ATOM     46  C   UNL     1      46.500  11.836  16.505  0.00  0.00    +0.023 C 
ATOM     47  C   UNL     1      48.320  12.954  15.325  0.00  0.00    +0.167 C 
ATOM     50  C   UNL     1      49.705  13.585  15.417  0.00  0.00    -0.045 C 
ATOM     51  C   UNL     1      50.678  12.484  15.834  0.00  0.00    +0.195 C 
ENDROOT
BRANCH  32  33
ATOM     33  C   UNL     1      47.122  20.264  20.144  0.00  0.00    +0.507 C 
ATOM     34  O   UNL     1      47.715  20.698  19.170  0.00  0.00    -0.688 OA
ATOM     35  O   UNL     1      47.617  20.366  21.253  0.00  0.00    -0.703 OA
ENDBRANCH  32  33
BRANCH  47  48
ATOM     48  O   UNL     1      47.405  13.792  14.640  0.00  0.00    -0.552 OA
ATOM     49  H   UNL     1      46.628  14.035  15.163  0.00  0.00    +0.370 HD
ENDBRANCH  47  48
BRANCH  51  52
ATOM     52  O   UNL     1      50.693  11.450  14.847  0.00  0.00    -0.560 OA
ATOM     53  H   UNL     1      50.165  11.649  14.062  0.00  0.00    +0.367 HD
ENDBRANCH  51  52
BRANCH  19  18
ATOM     18  C   UNL     1      50.831  12.819  18.281  0.00  0.00    +0.074 C 
BRANCH  18  14
ATOM     14  C   UNL     1      52.216  12.337  18.717  0.00  0.00    +0.144 C 
BRANCH  14  15
ATOM     15  C   UNL     1      52.110  11.653  20.057  0.00  0.00    +0.323 C 
ATOM     16  C   UNL     1      52.762  10.312  20.272  0.00  0.00    +0.066 C 
ATOM     17  O   UNL     1      51.504  12.181  20.958  0.00  0.00    -0.426 OA
ENDBRANCH  14  15
BRANCH  14  13
ATOM     13  O   UNL     1      53.098  13.455  18.822  0.00  0.00    -0.327 OA
BRANCH  13  12
ATOM      1  C   UNL     1      52.981  16.465  22.486  0.00  0.00    +0.074 C 
ATOM      2  C   UNL     1      52.383  16.195  21.105  0.00  0.00    +0.138 C 
ATOM      3  C   UNL     1      52.668  17.385  20.184  0.00  0.00    +0.165 C 
ATOM      6  C   UNL     1      52.119  17.082  18.786  0.00  0.00    +0.194 C 
ATOM      9  C   UNL     1      52.752  15.784  18.272  0.00  0.00    +0.146 C 
ATOM     12  C   UNL     1      52.464  14.656  19.267  0.00  0.00    +0.282 C 
ATOM     54  O   UNL     1      52.972  15.015  20.552  0.00  0.00    -0.378 OA
BRANCH   3   4
ATOM      4  O   UNL     1      52.032  18.554  20.704  0.00  0.00    -0.546 OA
ATOM      5  H   UNL     1      52.631  19.153  21.170  0.00  0.00    +0.381 HD
ENDBRANCH   3   4
BRANCH   6   7
ATOM      7  O   UNL     1      52.444  18.156  17.901  0.00  0.00    -0.546 OA
ATOM      8  H   UNL     1      51.734  18.387  17.286  0.00  0.00    +0.389 HD
ENDBRANCH   6   7
BRANCH   9  10
ATOM     10  O   UNL     1      52.195  15.453  16.998  0.00  0.00    -0.553 OA
ATOM     11  H   UNL     1      52.738  15.732  16.247  0.00  0.00    +0.401 HD
ENDBRANCH   9  10
ENDBRANCH  13  12
ENDBRANCH  14  13
ENDBRANCH  18  14
ENDBRANCH  19  18
TORSDOF 11
ENDMDL
MODEL 8
REMARK VINA RESULT:      -4.3      2.424      6.534
REMARK  Name = ZINC95486277
REMARK  19 active torsions:
REMARK  status: ('A' for Active; 'I' for Inactive)
REMARK    1  A    between atoms: C1_1  and  C2_2
REMARK    2  A    between atoms: C3_4  and  O10_60
REMARK    3  A    between atoms: C4_6  and  O9_59
REMARK    4  A    between atoms: C5_8  and  O8_58
REMARK    5  A    between atoms: C6_10  and  O2_13
REMARK    6  A    between atoms: O2_13  and  C7_14
REMARK    7  A    between atoms: C7_14  and  C8_16
REMARK    8  A    between atoms: C7_14  and  C38_55
REMARK    9  A    between atoms: C8_16  and  C9_17
REMARK   10  A    between atoms: C9_17  and  C37_54
REMARK   11  A    between atoms: C13_22  and  C36_53
REMARK   12  A    between atoms: C15_25  and  C19_33
REMARK   13  A    between atoms: C16_26  and  O4_32
REMARK   14  A    between atoms: C18_29  and  O3_31
REMARK   15  A    between atoms: C23_37  and  C35_52
REMARK   16  A    between atoms: C26_40  and  C34_51
REMARK   17  A    between atoms: C29_44  and  C32_47
REMARK   18  A    between atoms: C29_44  and  C33_48
REMARK   19  A    between atoms: C38_55  and  C39_57
REMARK                            x       y       z     vdW  Elec       q    Type
REMARK                         _______ _______ _______ _____ _____    ______ ____
ROOT
ATOM     19  C   UNL     1      46.628  13.635  20.648  0.00  0.00    -0.022 C 
ATOM     20  C   UNL     1      46.338  12.386  21.518  0.00  0.00    +0.031 C 
ATOM     21  C   UNL     1      46.553  14.851  21.543  0.00  0.00    +0.008 C 
ATOM     22  C   UNL     1      47.722  14.969  22.505  0.00  0.00    +0.011 C 
ATOM     23  C   UNL     1      48.972  15.591  21.913  0.00  0.00    +0.004 C 
ATOM     24  C   UNL     1      48.730  16.846  21.094  0.00  0.00    -0.019 C 
ATOM     25  C   UNL     1      48.597  18.024  22.083  0.00  0.00    +0.011 C 
ATOM     26  C   UNL     1      47.485  16.778  20.219  0.00  0.00    +0.017 C 
ATOM     27  C   UNL     1      47.216  18.178  19.656  0.00  0.00    +0.070 C 
ATOM     28  C   UNL     1      48.464  18.715  19.012  0.00  0.00    -0.091 C 
ATOM     29  C   UNL     1      49.659  18.262  19.241  0.00  0.00    -0.078 C 
ATOM     30  C   UNL     1      50.824  18.846  18.470  0.00  0.00    +0.072 C 
ATOM     31  C   UNL     1      50.389  20.031  17.623  0.00  0.00    +0.019 C 
ATOM     32  C   UNL     1      51.576  20.617  16.859  0.00  0.00    -0.131 C 
ATOM     36  C   UNL     1      51.112  21.894  16.139  0.00  0.00    +0.008 C 
ATOM     37  C   UNL     1      52.711  20.978  17.812  0.00  0.00    +0.009 C 
ATOM     38  C   UNL     1      53.118  19.801  18.688  0.00  0.00    +0.007 C 
ATOM     39  C   UNL     1      51.920  19.246  19.456  0.00  0.00    -0.037 C 
ATOM     40  C   UNL     1      51.408  20.301  20.433  0.00  0.00    +0.010 C 
ATOM     41  C   UNL     1      52.342  17.995  20.231  0.00  0.00    +0.003 C 
ATOM     42  C   UNL     1      51.179  17.451  21.061  0.00  0.00    +0.014 C 
ATOM     43  C   UNL     1      49.950  17.153  20.217  0.00  0.00    +0.002 C 
ATOM     44  C   UNL     1      50.273  15.921  19.360  0.00  0.00    +0.017 C 
ATOM     45  C   UNL     1      46.257  16.190  20.881  0.00  0.00    -0.017 C 
ATOM     46  C   UNL     1      45.685  17.129  21.964  0.00  0.00    +0.023 C 
ATOM     47  C   UNL     1      45.107  15.997  19.881  0.00  0.00    +0.167 C 
ATOM     50  C   UNL     1      45.516  14.974  18.827  0.00  0.00    -0.045 C 
ATOM     51  C   UNL     1      45.596  13.615  19.521  0.00  0.00    +0.195 C 
ENDROOT
BRANCH  32  33
ATOM     33  C   UNL     1      52.063  19.638  15.825  0.00  0.00    +0.507 C 
ATOM     34  O   UNL     1      52.931  19.968  15.034  0.00  0.00    -0.688 OA
ATOM     35  O   UNL     1      51.591  18.515  15.777  0.00  0.00    -0.703 OA
ENDBRANCH  32  33
BRANCH  47  48
ATOM     48  O   UNL     1      44.690  17.218  19.295  0.00  0.00    -0.552 OA
ATOM     49  H   UNL     1      43.787  17.475  19.524  0.00  0.00    +0.370 HD
ENDBRANCH  47  48
BRANCH  51  52
ATOM     52  O   UNL     1      44.315  13.265  20.049  0.00  0.00    -0.560 OA
ATOM     53  H   UNL     1      44.133  13.642  20.920  0.00  0.00    +0.367 HD
ENDBRANCH  51  52
BRANCH  19  18
ATOM     18  C   UNL     1      48.011  13.426  20.026  0.00  0.00    +0.074 C 
BRANCH  18  14
ATOM     14  C   UNL     1      48.494  12.006  20.325  0.00  0.00    +0.144 C 
BRANCH  14  15
ATOM     15  C   UNL     1      49.806  12.069  21.068  0.00  0.00    +0.323 C 
ATOM     16  C   UNL     1      49.903  11.530  22.471  0.00  0.00    +0.066 C 
ATOM     17  O   UNL     1      50.778  12.550  20.537  0.00  0.00    -0.426 OA
ENDBRANCH  14  15
BRANCH  14  13
ATOM     13  O   UNL     1      48.675  11.296  19.099  0.00  0.00    -0.327 OA
BRANCH  13  12
ATOM      1  C   UNL     1      51.133  13.389  15.623  0.00  0.00    +0.074 C 
ATOM      2  C   UNL     1      49.718  13.170  16.162  0.00  0.00    +0.138 C 
ATOM      3  C   UNL     1      48.866  12.479  15.093  0.00  0.00    +0.165 C 
ATOM      6  C   UNL     1      47.469  12.208  15.660  0.00  0.00    +0.194 C 
ATOM      9  C   UNL     1      47.602  11.367  16.934  0.00  0.00    +0.146 C 
ATOM     12  C   UNL     1      48.502  12.101  17.931  0.00  0.00    +0.282 C 
ATOM     54  O   UNL     1      49.774  12.348  17.330  0.00  0.00    -0.378 OA
BRANCH   3   4
ATOM      4  O   UNL     1      48.762  13.323  13.945  0.00  0.00    -0.546 OA
ATOM      5  H   UNL     1      48.427  14.210  14.138  0.00  0.00    +0.381 HD
ENDBRANCH   3   4
BRANCH   6   7
ATOM      7  O   UNL     1      46.690  11.499  14.695  0.00  0.00    -0.546 OA
ATOM      8  H   UNL     1      47.069  11.502  13.805  0.00  0.00    +0.389 HD
ENDBRANCH   6   7
BRANCH   9  10
ATOM     10  O   UNL     1      46.310  11.167  17.511  0.00  0.00    -0.553 OA
ATOM     11  H   UNL     1      45.583  11.210  16.873  0.00  0.00    +0.401 HD
ENDBRANCH   9  10
ENDBRANCH  13  12
ENDBRANCH  14  13
ENDBRANCH  18  14
ENDBRANCH  19  18
TORSDOF 11
ENDMDL
MODEL 9
REMARK VINA RESULT:      -3.9      2.207      7.883
REMARK  Name = ZINC95486277
REMARK  19 active torsions:
REMARK  status: ('A' for Active; 'I' for Inactive)
REMARK    1  A    between atoms: C1_1  and  C2_2
REMARK    2  A    between atoms: C3_4  and  O10_60
REMARK    3  A    between atoms: C4_6  and  O9_59
REMARK    4  A    between atoms: C5_8  and  O8_58
REMARK    5  A    between atoms: C6_10  and  O2_13
REMARK    6  A    between atoms: O2_13  and  C7_14
REMARK    7  A    between atoms: C7_14  and  C8_16
REMARK    8  A    between atoms: C7_14  and  C38_55
REMARK    9  A    between atoms: C8_16  and  C9_17
REMARK   10  A    between atoms: C9_17  and  C37_54
REMARK   11  A    between atoms: C13_22  and  C36_53
REMARK   12  A    between atoms: C15_25  and  C19_33
REMARK   13  A    between atoms: C16_26  and  O4_32
REMARK   14  A    between atoms: C18_29  and  O3_31
REMARK   15  A    between atoms: C23_37  and  C35_52
REMARK   16  A    between atoms: C26_40  and  C34_51
REMARK   17  A    between atoms: C29_44  and  C32_47
REMARK   18  A    between atoms: C29_44  and  C33_48
REMARK   19  A    between atoms: C38_55  and  C39_57
REMARK                            x       y       z     vdW  Elec       q    Type
REMARK                         _______ _______ _______ _____ _____    ______ ____
ROOT
ATOM     19  C   UNL     1      49.593  19.457  19.956  0.00  0.00    -0.022 C 
ATOM     20  C   UNL     1      49.346  20.415  21.149  0.00  0.00    +0.031 C 
ATOM     21  C   UNL     1      50.851  18.671  20.244  0.00  0.00    +0.008 C 
ATOM     22  C   UNL     1      50.679  17.631  21.338  0.00  0.00    +0.011 C 
ATOM     23  C   UNL     1      50.072  16.320  20.877  0.00  0.00    +0.004 C 
ATOM     24  C   UNL     1      50.662  15.762  19.595  0.00  0.00    -0.019 C 
ATOM     25  C   UNL     1      51.974  15.038  19.968  0.00  0.00    +0.011 C 
ATOM     26  C   UNL     1      50.953  16.822  18.540  0.00  0.00    +0.017 C 
ATOM     27  C   UNL     1      51.774  16.173  17.420  0.00  0.00    +0.070 C 
ATOM     28  C   UNL     1      51.086  14.922  16.947  0.00  0.00    -0.091 C 
ATOM     29  C   UNL     1      50.185  14.280  17.625  0.00  0.00    -0.078 C 
ATOM     30  C   UNL     1      49.520  13.072  17.001  0.00  0.00    +0.072 C 
ATOM     31  C   UNL     1      50.166  12.709  15.674  0.00  0.00    +0.019 C 
ATOM     32  C   UNL     1      49.494  11.481  15.061  0.00  0.00    -0.131 C 
ATOM     36  C   UNL     1      50.276  11.071  13.802  0.00  0.00    +0.008 C 
ATOM     37  C   UNL     1      49.497  10.312  16.041  0.00  0.00    +0.009 C 
ATOM     38  C   UNL     1      48.886  10.690  17.384  0.00  0.00    +0.007 C 
ATOM     39  C   UNL     1      49.588  11.906  17.985  0.00  0.00    -0.037 C 
ATOM     40  C   UNL     1      51.039  11.551  18.302  0.00  0.00    +0.010 C 
ATOM     41  C   UNL     1      48.873  12.326  19.272  0.00  0.00    +0.003 C 
ATOM     42  C   UNL     1      49.590  13.503  19.933  0.00  0.00    +0.014 C 
ATOM     43  C   UNL     1      49.734  14.696  19.000  0.00  0.00    +0.002 C 
ATOM     44  C   UNL     1      48.335  15.300  18.814  0.00  0.00    +0.017 C 
ATOM     45  C   UNL     1      51.602  18.089  19.054  0.00  0.00    -0.017 C 
ATOM     46  C   UNL     1      53.061  17.847  19.496  0.00  0.00    +0.023 C 
ATOM     47  C   UNL     1      51.696  19.166  17.962  0.00  0.00    +0.167 C 
ATOM     50  C   UNL     1      50.292  19.584  17.538  0.00  0.00    -0.045 C 
ATOM     51  C   UNL     1      49.672  20.342  18.711  0.00  0.00    +0.195 C 
ENDROOT
BRANCH  32  33
ATOM     33  C   UNL     1      48.081  11.810  14.656  0.00  0.00    +0.507 C 
ATOM     34  O   UNL     1      47.867  12.724  13.877  0.00  0.00    -0.688 OA
ATOM     35  O   UNL     1      47.150  11.164  15.107  0.00  0.00    -0.703 OA
ENDBRANCH  32  33
BRANCH  47  48
ATOM     48  O   UNL     1      52.476  18.746  16.856  0.00  0.00    -0.552 OA
ATOM     49  H   UNL     1      52.335  17.823  16.603  0.00  0.00    +0.370 HD
ENDBRANCH  47  48
BRANCH  51  52
ATOM     52  O   UNL     1      50.447  21.507  19.000  0.00  0.00    -0.560 OA
ATOM     53  H   UNL     1      50.085  22.323  18.628  0.00  0.00    +0.367 HD
ENDBRANCH  51  52
BRANCH  19  18
ATOM     18  C   UNL     1      48.346  18.578  19.831  0.00  0.00    +0.074 C 
BRANCH  18  14
ATOM     14  C   UNL     1      47.126  19.351  20.338  0.00  0.00    +0.144 C 
BRANCH  14  15
ATOM     15  C   UNL     1      47.030  19.210  21.836  0.00  0.00    +0.323 C 
ATOM     16  C   UNL     1      47.425  17.916  22.498  0.00  0.00    +0.066 C 
ATOM     17  O   UNL     1      46.639  20.136  22.505  0.00  0.00    -0.426 OA
ENDBRANCH  14  15
BRANCH  14  13
ATOM     13  O   UNL     1      45.944  18.824  19.733  0.00  0.00    -0.327 OA
BRANCH  13  12
ATOM      1  C   UNL     1      42.097  21.433  18.788  0.00  0.00    +0.074 C 
ATOM      2  C   UNL     1      42.775  20.603  19.879  0.00  0.00    +0.138 C 
ATOM      3  C   UNL     1      41.850  19.457  20.298  0.00  0.00    +0.165 C 
ATOM      6  C   UNL     1      42.560  18.595  21.347  0.00  0.00    +0.194 C 
ATOM      9  C   UNL     1      43.884  18.090  20.765  0.00  0.00    +0.146 C 
ATOM     12  C   UNL     1      44.731  19.289  20.328  0.00  0.00    +0.282 C 
ATOM     54  O   UNL     1      44.001  20.065  19.376  0.00  0.00    -0.378 OA
BRANCH   3   4
ATOM      4  O   UNL     1      40.647  19.993  20.853  0.00  0.00    -0.546 OA
ATOM      5  H   UNL     1      39.846  19.735  20.378  0.00  0.00    +0.381 HD
ENDBRANCH   3   4
BRANCH   6   7
ATOM      7  O   UNL     1      41.732  17.482  21.690  0.00  0.00    -0.546 OA
ATOM      8  H   UNL     1      42.000  17.028  22.501  0.00  0.00    +0.389 HD
ENDBRANCH   6   7
BRANCH   9  10
ATOM     10  O   UNL     1      44.588  17.343  21.759  0.00  0.00    -0.553 OA
ATOM     11  H   UNL     1      45.334  17.817  22.153  0.00  0.00    +0.401 HD
ENDBRANCH   9  10
ENDBRANCH  13  12
ENDBRANCH  14  13
ENDBRANCH  18  14
ENDBRANCH  19  18
TORSDOF 11
ENDMDL
