MODEL 1
REMARK VINA RESULT:      -5.4      0.000      0.000
REMARK  Name = ZINC95486136
REMARK  8 active torsions:
REMARK  status: ('A' for Active; 'I' for Inactive)
REMARK    1  A    between atoms: C1_1  and  O1_2
REMARK    2  A    between atoms: O1_2  and  C2_3
REMARK    3  A    between atoms: C3_4  and  O4_20
REMARK    4  A    between atoms: C5_6  and  C8_10
REMARK    5  A    between atoms: C7_8  and  O2_9
REMARK    6  A    between atoms: C8_10  and  C9_12
REMARK    7  A    between atoms: C8_10  and  O3_19
REMARK    8  A    between atoms: C9_12  and  C10_13
REMARK                            x       y       z     vdW  Elec       q    Type
REMARK                         _______ _______ _______ _____ _____    ______ ____
ROOT
ATOM      3  C   UNL     1      45.160  19.703  18.790  0.00  0.00    +0.044 A 
ATOM      4  C   UNL     1      45.751  18.485  19.106  0.00  0.00    +0.108 A 
ATOM      7  C   UNL     1      47.087  18.440  19.475  0.00  0.00    +0.009 A 
ATOM      8  C   UNL     1      47.831  19.604  19.530  0.00  0.00    -0.090 A 
ATOM     19  C   UNL     1      47.247  20.817  19.217  0.00  0.00    +0.002 A 
ATOM     20  C   UNL     1      45.913  20.870  18.840  0.00  0.00    +0.111 A 
ENDROOT
BRANCH   3   2
ATOM      1  C   UNL     1      42.893  19.937  19.473  0.00  0.00    +0.228 C 
ATOM      2  O   UNL     1      43.850  19.751  18.428  0.00  0.00    -0.323 OA
ENDBRANCH   3   2
BRANCH   4   5
ATOM      5  O   UNL     1      45.021  17.340  19.053  0.00  0.00    -0.483 OA
ATOM      6  H   UNL     1      44.589  17.109  19.887  0.00  0.00    +0.390 HD
ENDBRANCH   4   5
BRANCH  20  21
ATOM     21  O   UNL     1      45.341  22.063  18.527  0.00  0.00    -0.489 OA
ATOM     22  H   UNL     1      44.707  22.017  17.798  0.00  0.00    +0.398 HD
ENDBRANCH  20  21
BRANCH   8   9
ATOM      9  C   UNL     1      49.283  19.551  19.932  0.00  0.00    +0.270 C 
BRANCH   9  10
ATOM     10  O   UNL     1      49.385  19.596  21.356  0.00  0.00    -0.545 OA
ATOM     11  H   UNL     1      48.605  19.964  21.794  0.00  0.00    +0.373 HD
ENDBRANCH   9  10
BRANCH   9  12
ATOM     12  C   UNL     1      50.022  20.746  19.328  0.00  0.00    +0.056 C 
BRANCH  12  13
ATOM     13  C   UNL     1      50.748  20.310  18.081  0.00  0.00    -0.080 A 
ATOM     14  C   UNL     1      51.188  21.252  17.171  0.00  0.00    +0.016 A 
ATOM     15  C   UNL     1      51.853  20.851  16.028  0.00  0.00    +0.003 A 
ATOM     16  C   UNL     1      52.079  19.507  15.795  0.00  0.00    -0.001 A 
ATOM     17  C   UNL     1      51.641  18.565  16.705  0.00  0.00    +0.003 A 
ATOM     18  C   UNL     1      50.978  18.965  17.851  0.00  0.00    +0.002 A 
ENDBRANCH  12  13
ENDBRANCH   9  12
ENDBRANCH   8   9
TORSDOF 7
ENDMDL
MODEL 2
REMARK VINA RESULT:      -5.4      0.240      2.198
REMARK  Name = ZINC95486136
REMARK  8 active torsions:
REMARK  status: ('A' for Active; 'I' for Inactive)
REMARK    1  A    between atoms: C1_1  and  O1_2
REMARK    2  A    between atoms: O1_2  and  C2_3
REMARK    3  A    between atoms: C3_4  and  O4_20
REMARK    4  A    between atoms: C5_6  and  C8_10
REMARK    5  A    between atoms: C7_8  and  O2_9
REMARK    6  A    between atoms: C8_10  and  C9_12
REMARK    7  A    between atoms: C8_10  and  O3_19
REMARK    8  A    between atoms: C9_12  and  C10_13
REMARK                            x       y       z     vdW  Elec       q    Type
REMARK                         _______ _______ _______ _____ _____    ______ ____
ROOT
ATOM      3  C   UNL     1      44.983  19.723  18.940  0.00  0.00    +0.044 A 
ATOM      4  C   UNL     1      45.735  20.892  18.921  0.00  0.00    +0.108 A 
ATOM      7  C   UNL     1      47.088  20.848  19.222  0.00  0.00    +0.009 A 
ATOM      8  C   UNL     1      47.689  19.644  19.538  0.00  0.00    -0.090 A 
ATOM     19  C   UNL     1      46.944  18.479  19.557  0.00  0.00    +0.002 A 
ATOM     20  C   UNL     1      45.588  18.516  19.265  0.00  0.00    +0.111 A 
ENDROOT
BRANCH   3   2
ATOM      1  C   UNL     1      42.753  19.951  19.739  0.00  0.00    +0.228 C 
ATOM      2  O   UNL     1      43.654  19.763  18.646  0.00  0.00    -0.323 OA
ENDBRANCH   3   2
BRANCH   4   5
ATOM      5  O   UNL     1      45.146  22.077  18.609  0.00  0.00    -0.483 OA
ATOM      6  H   UNL     1      44.639  22.468  19.335  0.00  0.00    +0.390 HD
ENDBRANCH   4   5
BRANCH  20  21
ATOM     21  O   UNL     1      44.855  17.371  19.289  0.00  0.00    -0.489 OA
ATOM     22  H   UNL     1      44.203  17.337  20.003  0.00  0.00    +0.398 HD
ENDBRANCH  20  21
BRANCH   8   9
ATOM      9  C   UNL     1      49.160  19.599  19.864  0.00  0.00    +0.270 C 
BRANCH   9  10
ATOM     10  O   UNL     1      49.338  19.696  21.279  0.00  0.00    -0.545 OA
ATOM     11  H   UNL     1      48.524  19.890  21.764  0.00  0.00    +0.373 HD
ENDBRANCH   9  10
BRANCH   9  12
ATOM     12  C   UNL     1      49.869  20.769  19.179  0.00  0.00    +0.056 C 
BRANCH  12  13
ATOM     13  C   UNL     1      50.623  20.263  17.976  0.00  0.00    -0.080 A 
ATOM     14  C   UNL     1      50.606  18.917  17.665  0.00  0.00    +0.016 A 
ATOM     15  C   UNL     1      51.298  18.454  16.561  0.00  0.00    +0.003 A 
ATOM     16  C   UNL     1      52.005  19.338  15.767  0.00  0.00    -0.001 A 
ATOM     17  C   UNL     1      52.020  20.684  16.077  0.00  0.00    +0.003 A 
ATOM     18  C   UNL     1      51.325  21.149  17.179  0.00  0.00    +0.002 A 
ENDBRANCH  12  13
ENDBRANCH   9  12
ENDBRANCH   8   9
TORSDOF 7
ENDMDL
MODEL 3
REMARK VINA RESULT:      -5.2      1.609      1.974
REMARK  Name = ZINC95486136
REMARK  8 active torsions:
REMARK  status: ('A' for Active; 'I' for Inactive)
REMARK    1  A    between atoms: C1_1  and  O1_2
REMARK    2  A    between atoms: O1_2  and  C2_3
REMARK    3  A    between atoms: C3_4  and  O4_20
REMARK    4  A    between atoms: C5_6  and  C8_10
REMARK    5  A    between atoms: C7_8  and  O2_9
REMARK    6  A    between atoms: C8_10  and  C9_12
REMARK    7  A    between atoms: C8_10  and  O3_19
REMARK    8  A    between atoms: C9_12  and  C10_13
REMARK                            x       y       z     vdW  Elec       q    Type
REMARK                         _______ _______ _______ _____ _____    ______ ____
ROOT
ATOM      3  C   UNL     1      45.338  21.604  20.265  0.00  0.00    +0.044 A 
ATOM      4  C   UNL     1      45.659  20.721  19.240  0.00  0.00    +0.108 A 
ATOM      7  C   UNL     1      46.959  20.257  19.110  0.00  0.00    +0.009 A 
ATOM      8  C   UNL     1      47.934  20.669  19.999  0.00  0.00    -0.090 A 
ATOM     19  C   UNL     1      47.619  21.546  21.020  0.00  0.00    +0.002 A 
ATOM     20  C   UNL     1      46.322  22.021  21.152  0.00  0.00    +0.111 A 
ENDROOT
BRANCH   3   2
ATOM      1  C   UNL     1      43.713  23.228  19.646  0.00  0.00    +0.228 C 
ATOM      2  O   UNL     1      44.063  22.062  20.395  0.00  0.00    -0.323 OA
ENDBRANCH   3   2
BRANCH   4   5
ATOM      5  O   UNL     1      44.700  20.315  18.366  0.00  0.00    -0.483 OA
ATOM      6  H   UNL     1      44.893  20.529  17.442  0.00  0.00    +0.390 HD
ENDBRANCH   4   5
BRANCH  20  21
ATOM     21  O   UNL     1      46.014  22.888  22.153  0.00  0.00    -0.489 OA
ATOM     22  H   UNL     1      46.726  23.017  22.795  0.00  0.00    +0.398 HD
ENDBRANCH  20  21
BRANCH   8   9
ATOM      9  C   UNL     1      49.346  20.161  19.854  0.00  0.00    +0.270 C 
BRANCH   9  10
ATOM     10  O   UNL     1      49.965  20.101  21.141  0.00  0.00    -0.545 OA
ATOM     11  H   UNL     1      49.384  19.773  21.841  0.00  0.00    +0.373 HD
ENDBRANCH   9  10
BRANCH   9  12
ATOM     12  C   UNL     1      50.138  21.107  18.950  0.00  0.00    +0.056 C 
BRANCH  12  13
ATOM     13  C   UNL     1      50.762  20.322  17.825  0.00  0.00    -0.080 A 
ATOM     14  C   UNL     1      51.533  20.966  16.877  0.00  0.00    +0.016 A 
ATOM     15  C   UNL     1      52.105  20.244  15.845  0.00  0.00    +0.003 A 
ATOM     16  C   UNL     1      51.906  18.879  15.763  0.00  0.00    -0.001 A 
ATOM     17  C   UNL     1      51.136  18.234  16.712  0.00  0.00    +0.003 A 
ATOM     18  C   UNL     1      50.567  18.955  17.747  0.00  0.00    +0.002 A 
ENDBRANCH  12  13
ENDBRANCH   9  12
ENDBRANCH   8   9
TORSDOF 7
ENDMDL
MODEL 4
REMARK VINA RESULT:      -5.2      1.598      2.643
REMARK  Name = ZINC95486136
REMARK  8 active torsions:
REMARK  status: ('A' for Active; 'I' for Inactive)
REMARK    1  A    between atoms: C1_1  and  O1_2
REMARK    2  A    between atoms: O1_2  and  C2_3
REMARK    3  A    between atoms: C3_4  and  O4_20
REMARK    4  A    between atoms: C5_6  and  C8_10
REMARK    5  A    between atoms: C7_8  and  O2_9
REMARK    6  A    between atoms: C8_10  and  C9_12
REMARK    7  A    between atoms: C8_10  and  O3_19
REMARK    8  A    between atoms: C9_12  and  C10_13
REMARK                            x       y       z     vdW  Elec       q    Type
REMARK                         _______ _______ _______ _____ _____    ______ ____
ROOT
ATOM      3  C   UNL     1      45.461  21.727  20.255  0.00  0.00    +0.044 A 
ATOM      4  C   UNL     1      46.430  22.136  21.164  0.00  0.00    +0.108 A 
ATOM      7  C   UNL     1      47.716  21.625  21.079  0.00  0.00    +0.009 A 
ATOM      8  C   UNL     1      48.036  20.711  20.093  0.00  0.00    -0.090 A 
ATOM     19  C   UNL     1      47.075  20.302  19.186  0.00  0.00    +0.002 A 
ATOM     20  C   UNL     1      45.784  20.803  19.268  0.00  0.00    +0.111 A 
ENDROOT
BRANCH   3   2
ATOM      1  C   UNL     1      43.901  23.373  19.535  0.00  0.00    +0.228 C 
ATOM      2  O   UNL     1      44.197  22.226  20.335  0.00  0.00    -0.323 OA
ENDBRANCH   3   2
BRANCH   4   5
ATOM      5  O   UNL     1      46.117  23.035  22.134  0.00  0.00    -0.483 OA
ATOM      6  H   UNL     1      46.249  22.706  23.034  0.00  0.00    +0.390 HD
ENDBRANCH   4   5
BRANCH  20  21
ATOM     21  O   UNL     1      44.839  20.396  18.380  0.00  0.00    -0.489 OA
ATOM     22  H   UNL     1      43.931  20.488  18.702  0.00  0.00    +0.398 HD
ENDBRANCH  20  21
BRANCH   8   9
ATOM      9  C   UNL     1      49.435  20.158  20.004  0.00  0.00    +0.270 C 
BRANCH   9  10
ATOM     10  O   UNL     1      49.970  20.003  21.320  0.00  0.00    -0.545 OA
ATOM     11  H   UNL     1      50.795  20.486  21.468  0.00  0.00    +0.373 HD
ENDBRANCH   9  10
BRANCH   9  12
ATOM     12  C   UNL     1      50.315  21.122  19.206  0.00  0.00    +0.056 C 
BRANCH  12  13
ATOM     13  C   UNL     1      50.856  20.417  17.989  0.00  0.00    -0.080 A 
ATOM     14  C   UNL     1      50.811  19.037  17.912  0.00  0.00    +0.016 A 
ATOM     15  C   UNL     1      51.308  18.391  16.795  0.00  0.00    +0.003 A 
ATOM     16  C   UNL     1      51.849  19.124  15.755  0.00  0.00    -0.001 A 
ATOM     17  C   UNL     1      51.893  20.503  15.832  0.00  0.00    +0.003 A 
ATOM     18  C   UNL     1      51.393  21.151  16.946  0.00  0.00    +0.002 A 
ENDBRANCH  12  13
ENDBRANCH   9  12
ENDBRANCH   8   9
TORSDOF 7
ENDMDL
MODEL 5
REMARK VINA RESULT:      -5.1      1.998      2.726
REMARK  Name = ZINC95486136
REMARK  8 active torsions:
REMARK  status: ('A' for Active; 'I' for Inactive)
REMARK    1  A    between atoms: C1_1  and  O1_2
REMARK    2  A    between atoms: O1_2  and  C2_3
REMARK    3  A    between atoms: C3_4  and  O4_20
REMARK    4  A    between atoms: C5_6  and  C8_10
REMARK    5  A    between atoms: C7_8  and  O2_9
REMARK    6  A    between atoms: C8_10  and  C9_12
REMARK    7  A    between atoms: C8_10  and  O3_19
REMARK    8  A    between atoms: C9_12  and  C10_13
REMARK                            x       y       z     vdW  Elec       q    Type
REMARK                         _______ _______ _______ _____ _____    ______ ____
ROOT
ATOM      3  C   UNL     1      44.353  18.318  19.652  0.00  0.00    +0.044 A 
ATOM      4  C   UNL     1      45.011  17.101  19.794  0.00  0.00    +0.108 A 
ATOM      7  C   UNL     1      46.131  16.828  19.024  0.00  0.00    +0.009 A 
ATOM      8  C   UNL     1      46.594  17.762  18.118  0.00  0.00    -0.090 A 
ATOM     19  C   UNL     1      45.944  18.973  17.974  0.00  0.00    +0.002 A 
ATOM     20  C   UNL     1      44.818  19.252  18.735  0.00  0.00    +0.111 A 
ENDROOT
BRANCH   3   2
ATOM      1  C   UNL     1      43.470  19.246  21.657  0.00  0.00    +0.228 C 
ATOM      2  O   UNL     1      43.253  18.590  20.406  0.00  0.00    -0.323 OA
ENDBRANCH   3   2
BRANCH   4   5
ATOM      5  O   UNL     1      44.556  16.181  20.686  0.00  0.00    -0.483 OA
ATOM      6  H   UNL     1      44.653  15.265  20.391  0.00  0.00    +0.390 HD
ENDBRANCH   4   5
BRANCH  20  21
ATOM     21  O   UNL     1      44.175  20.441  18.589  0.00  0.00    -0.489 OA
ATOM     22  H   UNL     1      43.593  20.482  17.818  0.00  0.00    +0.398 HD
ENDBRANCH  20  21
BRANCH   8   9
ATOM      9  C   UNL     1      47.813  17.461  17.283  0.00  0.00    +0.270 C 
BRANCH   9  10
ATOM     10  O   UNL     1      47.658  16.186  16.657  0.00  0.00    -0.545 OA
ATOM     11  H   UNL     1      48.443  15.624  16.710  0.00  0.00    +0.373 HD
ENDBRANCH   9  10
BRANCH   9  12
ATOM     12  C   UNL     1      49.053  17.443  18.179  0.00  0.00    +0.056 C 
BRANCH  12  13
ATOM     13  C   UNL     1      49.865  18.690  17.937  0.00  0.00    -0.080 A 
ATOM     14  C   UNL     1      50.841  18.700  16.959  0.00  0.00    +0.016 A 
ATOM     15  C   UNL     1      51.585  19.844  16.738  0.00  0.00    +0.003 A 
ATOM     16  C   UNL     1      51.352  20.978  17.493  0.00  0.00    -0.001 A 
ATOM     17  C   UNL     1      50.375  20.968  18.471  0.00  0.00    +0.003 A 
ATOM     18  C   UNL     1      49.628  19.825  18.690  0.00  0.00    +0.002 A 
ENDBRANCH  12  13
ENDBRANCH   9  12
ENDBRANCH   8   9
TORSDOF 7
ENDMDL
MODEL 6
REMARK VINA RESULT:      -5.0      1.997      3.180
REMARK  Name = ZINC95486136
REMARK  8 active torsions:
REMARK  status: ('A' for Active; 'I' for Inactive)
REMARK    1  A    between atoms: C1_1  and  O1_2
REMARK    2  A    between atoms: O1_2  and  C2_3
REMARK    3  A    between atoms: C3_4  and  O4_20
REMARK    4  A    between atoms: C5_6  and  C8_10
REMARK    5  A    between atoms: C7_8  and  O2_9
REMARK    6  A    between atoms: C8_10  and  C9_12
REMARK    7  A    between atoms: C8_10  and  O3_19
REMARK    8  A    between atoms: C9_12  and  C10_13
REMARK                            x       y       z     vdW  Elec       q    Type
REMARK                         _______ _______ _______ _____ _____    ______ ____
ROOT
ATOM      3  C   UNL     1      44.377  18.323  19.659  0.00  0.00    +0.044 A 
ATOM      4  C   UNL     1      44.846  19.241  18.727  0.00  0.00    +0.108 A 
ATOM      7  C   UNL     1      45.986  18.957  17.990  0.00  0.00    +0.009 A 
ATOM      8  C   UNL     1      46.654  17.762  18.179  0.00  0.00    -0.090 A 
ATOM     19  C   UNL     1      46.190  16.846  19.104  0.00  0.00    +0.002 A 
ATOM     20  C   UNL     1      45.055  17.126  19.851  0.00  0.00    +0.111 A 
ENDROOT
BRANCH   3   2
ATOM      1  C   UNL     1      43.442  19.298  21.617  0.00  0.00    +0.228 C 
ATOM      2  O   UNL     1      43.259  18.598  20.384  0.00  0.00    -0.323 OA
ENDBRANCH   3   2
BRANCH   4   5
ATOM      5  O   UNL     1      44.190  20.417  18.539  0.00  0.00    -0.483 OA
ATOM      6  H   UNL     1      43.877  20.829  19.356  0.00  0.00    +0.390 HD
ENDBRANCH   4   5
BRANCH  20  21
ATOM     21  O   UNL     1      44.603  16.226  20.765  0.00  0.00    -0.489 OA
ATOM     22  H   UNL     1      44.819  16.453  21.681  0.00  0.00    +0.398 HD
ENDBRANCH  20  21
BRANCH   8   9
ATOM      9  C   UNL     1      47.892  17.456  17.375  0.00  0.00    +0.270 C 
BRANCH   9  10
ATOM     10  O   UNL     1      47.779  16.152  16.802  0.00  0.00    -0.545 OA
ATOM     11  H   UNL     1      46.902  15.755  16.901  0.00  0.00    +0.373 HD
ENDBRANCH   9  10
BRANCH   9  12
ATOM     12  C   UNL     1      49.118  17.508  18.289  0.00  0.00    +0.056 C 
BRANCH  12  13
ATOM     13  C   UNL     1      49.953  18.714  17.940  0.00  0.00    -0.080 A 
ATOM     14  C   UNL     1      49.782  19.898  18.631  0.00  0.00    +0.016 A 
ATOM     15  C   UNL     1      50.548  21.003  18.310  0.00  0.00    +0.003 A 
ATOM     16  C   UNL     1      51.487  20.923  17.299  0.00  0.00    -0.001 A 
ATOM     17  C   UNL     1      51.659  19.739  16.607  0.00  0.00    +0.003 A 
ATOM     18  C   UNL     1      50.896  18.632  16.930  0.00  0.00    +0.002 A 
ENDBRANCH  12  13
ENDBRANCH   9  12
ENDBRANCH   8   9
TORSDOF 7
ENDMDL
MODEL 7
REMARK VINA RESULT:      -4.9      3.918      7.128
REMARK  Name = ZINC95486136
REMARK  8 active torsions:
REMARK  status: ('A' for Active; 'I' for Inactive)
REMARK    1  A    between atoms: C1_1  and  O1_2
REMARK    2  A    between atoms: O1_2  and  C2_3
REMARK    3  A    between atoms: C3_4  and  O4_20
REMARK    4  A    between atoms: C5_6  and  C8_10
REMARK    5  A    between atoms: C7_8  and  O2_9
REMARK    6  A    between atoms: C8_10  and  C9_12
REMARK    7  A    between atoms: C8_10  and  O3_19
REMARK    8  A    between atoms: C9_12  and  C10_13
REMARK                            x       y       z     vdW  Elec       q    Type
REMARK                         _______ _______ _______ _____ _____    ______ ____
ROOT
ATOM      3  C   UNL     1      46.204  15.922  17.979  0.00  0.00    +0.044 A 
ATOM      4  C   UNL     1      46.550  17.127  17.379  0.00  0.00    +0.108 A 
ATOM      7  C   UNL     1      46.131  18.323  17.941  0.00  0.00    +0.009 A 
ATOM      8  C   UNL     1      45.373  18.319  19.096  0.00  0.00    -0.090 A 
ATOM     19  C   UNL     1      45.027  17.122  19.696  0.00  0.00    +0.002 A 
ATOM     20  C   UNL     1      45.436  15.921  19.137  0.00  0.00    +0.111 A 
ENDROOT
BRANCH   3   2
ATOM      1  C   UNL     1      47.923  14.290  17.773  0.00  0.00    +0.228 C 
ATOM      2  O   UNL     1      46.613  14.745  17.430  0.00  0.00    -0.323 OA
ENDBRANCH   3   2
BRANCH   4   5
ATOM      5  O   UNL     1      47.296  17.133  16.242  0.00  0.00    -0.483 OA
ATOM      6  H   UNL     1      46.876  16.688  15.493  0.00  0.00    +0.390 HD
ENDBRANCH   4   5
BRANCH  20  21
ATOM     21  O   UNL     1      45.091  14.744  19.724  0.00  0.00    -0.489 OA
ATOM     22  H   UNL     1      45.398  14.655  20.637  0.00  0.00    +0.398 HD
ENDBRANCH  20  21
BRANCH   8   9
ATOM      9  C   UNL     1      44.920  19.622  19.704  0.00  0.00    +0.270 C 
BRANCH   9  10
ATOM     10  O   UNL     1      45.886  20.062  20.661  0.00  0.00    -0.545 OA
ATOM     11  H   UNL     1      46.208  19.362  21.244  0.00  0.00    +0.373 HD
ENDBRANCH   9  10
BRANCH   9  12
ATOM     12  C   UNL     1      43.571  19.420  20.396  0.00  0.00    +0.056 C 
BRANCH  12  13
ATOM     13  C   UNL     1      42.515  20.226  19.683  0.00  0.00    -0.080 A 
ATOM     14  C   UNL     1      41.348  19.618  19.261  0.00  0.00    +0.016 A 
ATOM     15  C   UNL     1      40.381  20.358  18.607  0.00  0.00    +0.003 A 
ATOM     16  C   UNL     1      40.580  21.706  18.376  0.00  0.00    -0.001 A 
ATOM     17  C   UNL     1      41.746  22.315  18.799  0.00  0.00    +0.003 A 
ATOM     18  C   UNL     1      42.713  21.576  19.457  0.00  0.00    +0.002 A 
ENDBRANCH  12  13
ENDBRANCH   9  12
ENDBRANCH   8   9
TORSDOF 7
ENDMDL
MODEL 8
REMARK VINA RESULT:      -4.9      4.161      7.103
REMARK  Name = ZINC95486136
REMARK  8 active torsions:
REMARK  status: ('A' for Active; 'I' for Inactive)
REMARK    1  A    between atoms: C1_1  and  O1_2
REMARK    2  A    between atoms: O1_2  and  C2_3
REMARK    3  A    between atoms: C3_4  and  O4_20
REMARK    4  A    between atoms: C5_6  and  C8_10
REMARK    5  A    between atoms: C7_8  and  O2_9
REMARK    6  A    between atoms: C8_10  and  C9_12
REMARK    7  A    between atoms: C8_10  and  O3_19
REMARK    8  A    between atoms: C9_12  and  C10_13
REMARK                            x       y       z     vdW  Elec       q    Type
REMARK                         _______ _______ _______ _____ _____    ______ ____
ROOT
ATOM      3  C   UNL     1      46.275  14.344  17.949  0.00  0.00    +0.044 A 
ATOM      4  C   UNL     1      45.795  14.804  19.170  0.00  0.00    +0.108 A 
ATOM      7  C   UNL     1      45.602  16.162  19.369  0.00  0.00    +0.009 A 
ATOM      8  C   UNL     1      45.884  17.059  18.356  0.00  0.00    -0.090 A 
ATOM     19  C   UNL     1      46.361  16.606  17.140  0.00  0.00    +0.002 A 
ATOM     20  C   UNL     1      46.564  15.249  16.935  0.00  0.00    +0.111 A 
ENDROOT
BRANCH   3   2
ATOM      1  C   UNL     1      45.388  12.282  17.158  0.00  0.00    +0.228 C 
ATOM      2  O   UNL     1      46.466  13.011  17.750  0.00  0.00    -0.323 OA
ENDBRANCH   3   2
BRANCH   4   5
ATOM      5  O   UNL     1      45.517  13.923  20.168  0.00  0.00    -0.483 OA
ATOM      6  H   UNL     1      45.963  14.119  21.003  0.00  0.00    +0.390 HD
ENDBRANCH   4   5
BRANCH  20  21
ATOM     21  O   UNL     1      47.038  14.804  15.740  0.00  0.00    -0.489 OA
ATOM     22  H   UNL     1      47.947  14.475  15.776  0.00  0.00    +0.398 HD
ENDBRANCH  20  21
BRANCH   8   9
ATOM      9  C   UNL     1      45.672  18.535  18.577  0.00  0.00    +0.270 C 
BRANCH   9  10
ATOM     10  O   UNL     1      46.928  19.212  18.505  0.00  0.00    -0.545 OA
ATOM     11  H   UNL     1      47.458  18.977  17.731  0.00  0.00    +0.373 HD
ENDBRANCH   9  10
BRANCH   9  12
ATOM     12  C   UNL     1      45.048  18.759  19.955  0.00  0.00    +0.056 C 
BRANCH  12  13
ATOM     13  C   UNL     1      43.621  19.218  19.791  0.00  0.00    -0.080 A 
ATOM     14  C   UNL     1      42.652  18.793  20.679  0.00  0.00    +0.016 A 
ATOM     15  C   UNL     1      41.344  19.214  20.528  0.00  0.00    +0.003 A 
ATOM     16  C   UNL     1      41.006  20.061  19.489  0.00  0.00    -0.001 A 
ATOM     17  C   UNL     1      41.975  20.487  18.601  0.00  0.00    +0.003 A 
ATOM     18  C   UNL     1      43.285  20.070  18.754  0.00  0.00    +0.002 A 
ENDBRANCH  12  13
ENDBRANCH   9  12
ENDBRANCH   8   9
TORSDOF 7
ENDMDL
MODEL 9
REMARK VINA RESULT:      -4.8     19.026     20.209
REMARK  Name = ZINC95486136
REMARK  8 active torsions:
REMARK  status: ('A' for Active; 'I' for Inactive)
REMARK    1  A    between atoms: C1_1  and  O1_2
REMARK    2  A    between atoms: O1_2  and  C2_3
REMARK    3  A    between atoms: C3_4  and  O4_20
REMARK    4  A    between atoms: C5_6  and  C8_10
REMARK    5  A    between atoms: C7_8  and  O2_9
REMARK    6  A    between atoms: C8_10  and  C9_12
REMARK    7  A    between atoms: C8_10  and  O3_19
REMARK    8  A    between atoms: C9_12  and  C10_13
REMARK                            x       y       z     vdW  Elec       q    Type
REMARK                         _______ _______ _______ _____ _____    ______ ____
ROOT
ATOM      3  C   UNL     1      51.066  33.211   4.217  0.00  0.00    +0.044 A 
ATOM      4  C   UNL     1      51.316  33.325   5.580  0.00  0.00    +0.108 A 
ATOM      7  C   UNL     1      52.615  33.224   6.054  0.00  0.00    +0.009 A 
ATOM      8  C   UNL     1      53.661  33.013   5.175  0.00  0.00    -0.090 A 
ATOM     19  C   UNL     1      53.416  32.900   3.819  0.00  0.00    +0.002 A 
ATOM     20  C   UNL     1      52.118  32.992   3.337  0.00  0.00    +0.111 A 
ENDROOT
BRANCH   3   2
ATOM      1  C   UNL     1      49.361  34.598   3.306  0.00  0.00    +0.228 C 
ATOM      2  O   UNL     1      49.792  33.309   3.747  0.00  0.00    -0.323 OA
ENDBRANCH   3   2
BRANCH   4   5
ATOM      5  O   UNL     1      50.289  33.533   6.446  0.00  0.00    -0.483 OA
ATOM      6  H   UNL     1      50.203  34.450   6.741  0.00  0.00    +0.390 HD
ENDBRANCH   4   5
BRANCH  20  21
ATOM     21  O   UNL     1      51.878  32.875   2.003  0.00  0.00    -0.489 OA
ATOM     22  H   UNL     1      51.009  32.507   1.791  0.00  0.00    +0.398 HD
ENDBRANCH  20  21
BRANCH   8   9
ATOM      9  C   UNL     1      55.071  32.904   5.695  0.00  0.00    +0.270 C 
BRANCH   9  10
ATOM     10  O   UNL     1      55.189  33.645   6.911  0.00  0.00    -0.545 OA
ATOM     11  H   UNL     1      55.628  33.161   7.624  0.00  0.00    +0.373 HD
ENDBRANCH   9  10
BRANCH   9  12
ATOM     12  C   UNL     1      56.042  33.470   4.657  0.00  0.00    +0.056 C 
BRANCH  12  13
ATOM     13  C   UNL     1      56.914  32.360   4.128  0.00  0.00    -0.080 A 
ATOM     14  C   UNL     1      56.491  31.599   3.055  0.00  0.00    +0.016 A 
ATOM     15  C   UNL     1      57.292  30.581   2.571  0.00  0.00    +0.003 A 
ATOM     16  C   UNL     1      58.516  30.325   3.160  0.00  0.00    -0.001 A 
ATOM     17  C   UNL     1      58.940  31.086   4.232  0.00  0.00    +0.003 A 
ATOM     18  C   UNL     1      58.141  32.108   4.714  0.00  0.00    +0.002 A 
ENDBRANCH  12  13
ENDBRANCH   9  12
ENDBRANCH   8   9
TORSDOF 7
ENDMDL
