MODEL 1
REMARK VINA RESULT:      -6.5      0.000      0.000
REMARK  Name = ZINC95486041
REMARK  8 active torsions:
REMARK  status: ('A' for Active; 'I' for Inactive)
REMARK    1  A    between atoms: C1_1  and  C2_2
REMARK    2  A    between atoms: C2_2  and  C3_3
REMARK    3  A    between atoms: C2_2  and  C4_4
REMARK    4  A    between atoms: C4_4  and  C5_5
REMARK    5  A    between atoms: C6_6  and  C7_7
REMARK    6  A    between atoms: C7_7  and  C8_8
REMARK    7  A    between atoms: C12_14  and  C25_33
REMARK    8  A    between atoms: C23_27  and  O1_30
REMARK                            x       y       z     vdW  Elec       q    Type
REMARK                         _______ _______ _______ _____ _____    ______ ____
ROOT
ATOM      7  C   UNL     1      48.417  20.635  20.136  0.00  0.00    -0.001 C 
ATOM      8  C   UNL     1      48.509  19.221  19.503  0.00  0.00    +0.013 C 
ATOM      9  C   UNL     1      47.041  18.726  19.323  0.00  0.00    +0.024 C 
ATOM     10  C   UNL     1      46.272  20.054  19.356  0.00  0.00    +0.007 C 
ATOM     11  C   UNL     1      44.777  20.020  19.402  0.00  0.00    +0.109 C 
ATOM     12  C   UNL     1      44.194  19.119  20.482  0.00  0.00    +0.027 C 
ATOM     13  C   UNL     1      42.665  19.077  20.351  0.00  0.00    +0.018 C 
ATOM     14  C   UNL     1      42.225  20.073  19.271  0.00  0.00    +0.088 C 
ATOM     15  O   UNL     1      42.814  19.680  18.025  0.00  0.00    -0.189 OA
ATOM     16  C   UNL     1      42.739  21.465  19.642  0.00  0.00    -0.009 C 
ATOM     17  C   UNL     1      42.227  22.497  18.632  0.00  0.00    +0.030 C 
ATOM     18  C   UNL     1      40.700  22.478  18.585  0.00  0.00    -0.011 C 
ATOM     19  C   UNL     1      40.231  21.089  18.145  0.00  0.00    +0.168 C 
ATOM     22  C   UNL     1      40.705  20.058  19.169  0.00  0.00    +0.079 C 
ATOM     23  O   UNL     1      44.279  19.552  18.126  0.00  0.00    -0.194 OA
ATOM     24  C   UNL     1      44.269  21.458  19.585  0.00  0.00    -0.020 C 
ATOM     25  C   UNL     1      44.870  22.098  20.830  0.00  0.00    +0.027 C 
ATOM     26  C   UNL     1      46.402  22.153  20.720  0.00  0.00    +0.029 C 
ATOM     27  C   UNL     1      46.938  20.752  20.557  0.00  0.00    -0.047 C 
ATOM     28  C   UNL     1      46.798  19.978  21.867  0.00  0.00    +0.031 C 
ENDROOT
BRANCH  19  20
ATOM     20  O   UNL     1      38.803  21.069  18.071  0.00  0.00    -0.568 OA
ATOM     21  H   UNL     1      38.458  20.660  17.266  0.00  0.00    +0.381 HD
ENDBRANCH  19  20
BRANCH   7   6
ATOM      6  C   UNL     1      49.316  20.728  21.367  0.00  0.00    +0.060 C 
BRANCH   6   5
ATOM      4  C   UNL     1      51.232  21.220  19.937  0.00  0.00    -0.051 C 
ATOM      5  C   UNL     1      50.753  20.548  20.955  0.00  0.00    -0.052 C 
BRANCH   4   3
ATOM      3  C   UNL     1      52.670  21.041  19.525  0.00  0.00    +0.047 C 
BRANCH   3   2
ATOM      1  C   UNL     1      52.581  18.883  18.267  0.00  0.00    +0.013 C 
ATOM      2  C   UNL     1      52.726  20.400  18.135  0.00  0.00    -0.023 C 
ATOM     29  C   UNL     1      51.587  20.949  17.274  0.00  0.00    +0.014 C 
ENDBRANCH   3   2
ENDBRANCH   4   3
ENDBRANCH   6   5
ENDBRANCH   7   6
TORSDOF 5
ENDMDL
MODEL 2
REMARK VINA RESULT:      -6.2      4.590      8.751
REMARK  Name = ZINC95486041
REMARK  8 active torsions:
REMARK  status: ('A' for Active; 'I' for Inactive)
REMARK    1  A    between atoms: C1_1  and  C2_2
REMARK    2  A    between atoms: C2_2  and  C3_3
REMARK    3  A    between atoms: C2_2  and  C4_4
REMARK    4  A    between atoms: C4_4  and  C5_5
REMARK    5  A    between atoms: C6_6  and  C7_7
REMARK    6  A    between atoms: C7_7  and  C8_8
REMARK    7  A    between atoms: C12_14  and  C25_33
REMARK    8  A    between atoms: C23_27  and  O1_30
REMARK                            x       y       z     vdW  Elec       q    Type
REMARK                         _______ _______ _______ _____ _____    ______ ____
ROOT
ATOM      7  C   UNL     1      44.509  18.251  19.499  0.00  0.00    -0.001 C 
ATOM      8  C   UNL     1      45.151  19.135  18.396  0.00  0.00    +0.013 C 
ATOM      9  C   UNL     1      46.283  18.276  17.751  0.00  0.00    +0.024 C 
ATOM     10  C   UNL     1      45.844  16.859  18.146  0.00  0.00    +0.007 C 
ATOM     11  C   UNL     1      46.773  15.717  17.878  0.00  0.00    +0.109 C 
ATOM     12  C   UNL     1      48.195  15.921  18.383  0.00  0.00    +0.027 C 
ATOM     13  C   UNL     1      49.073  14.740  17.946  0.00  0.00    +0.018 C 
ATOM     14  C   UNL     1      48.192  13.679  17.276  0.00  0.00    +0.088 C 
ATOM     15  O   UNL     1      47.580  14.261  16.119  0.00  0.00    -0.189 OA
ATOM     16  C   UNL     1      47.094  13.256  18.254  0.00  0.00    -0.009 C 
ATOM     17  C   UNL     1      46.261  12.123  17.646  0.00  0.00    +0.030 C 
ATOM     18  C   UNL     1      47.159  10.938  17.295  0.00  0.00    -0.011 C 
ATOM     19  C   UNL     1      48.199  11.386  16.264  0.00  0.00    +0.168 C 
ATOM     22  C   UNL     1      49.059  12.491  16.878  0.00  0.00    +0.079 C 
ATOM     23  O   UNL     1      46.843  15.495  16.450  0.00  0.00    -0.194 OA
ATOM     24  C   UNL     1      46.169  14.450  18.504  0.00  0.00    -0.020 C 
ATOM     25  C   UNL     1      45.907  14.643  19.991  0.00  0.00    +0.027 C 
ATOM     26  C   UNL     1      44.915  15.796  20.217  0.00  0.00    +0.029 C 
ATOM     27  C   UNL     1      45.485  17.063  19.630  0.00  0.00    -0.047 C 
ATOM     28  C   UNL     1      46.656  17.556  20.479  0.00  0.00    +0.031 C 
ENDROOT
BRANCH  19  20
ATOM     20  O   UNL     1      49.026  10.277  15.908  0.00  0.00    -0.568 OA
ATOM     21  H   UNL     1      49.311  10.280  14.984  0.00  0.00    +0.381 HD
ENDBRANCH  19  20
BRANCH   7   6
ATOM      6  C   UNL     1      44.439  19.013  20.820  0.00  0.00    +0.060 C 
BRANCH   6   5
ATOM      4  C   UNL     1      42.091  19.311  20.221  0.00  0.00    -0.051 C 
ATOM      5  C   UNL     1      43.119  19.733  20.915  0.00  0.00    -0.052 C 
BRANCH   4   3
ATOM      3  C   UNL     1      40.771  20.032  20.316  0.00  0.00    +0.047 C 
BRANCH   3   2
ATOM      1  C   UNL     1      41.341  21.897  18.755  0.00  0.00    +0.013 C 
ATOM      2  C   UNL     1      40.444  20.677  18.967  0.00  0.00    -0.023 C 
ATOM     29  C   UNL     1      40.686  19.664  17.846  0.00  0.00    +0.014 C 
ENDBRANCH   3   2
ENDBRANCH   4   3
ENDBRANCH   6   5
ENDBRANCH   7   6
TORSDOF 5
ENDMDL
MODEL 3
REMARK VINA RESULT:      -6.0      3.923      8.003
REMARK  Name = ZINC95486041
REMARK  8 active torsions:
REMARK  status: ('A' for Active; 'I' for Inactive)
REMARK    1  A    between atoms: C1_1  and  C2_2
REMARK    2  A    between atoms: C2_2  and  C3_3
REMARK    3  A    between atoms: C2_2  and  C4_4
REMARK    4  A    between atoms: C4_4  and  C5_5
REMARK    5  A    between atoms: C6_6  and  C7_7
REMARK    6  A    between atoms: C7_7  and  C8_8
REMARK    7  A    between atoms: C12_14  and  C25_33
REMARK    8  A    between atoms: C23_27  and  O1_30
REMARK                            x       y       z     vdW  Elec       q    Type
REMARK                         _______ _______ _______ _____ _____    ______ ____
ROOT
ATOM      7  C   UNL     1      46.722  20.428  19.027  0.00  0.00    -0.001 C 
ATOM      8  C   UNL     1      48.225  20.805  19.116  0.00  0.00    +0.013 C 
ATOM      9  C   UNL     1      49.016  19.461  19.075  0.00  0.00    +0.024 C 
ATOM     10  C   UNL     1      47.978  18.523  18.443  0.00  0.00    +0.007 C 
ATOM     11  C   UNL     1      48.271  17.057  18.390  0.00  0.00    +0.109 C 
ATOM     12  C   UNL     1      48.702  16.446  19.716  0.00  0.00    +0.027 C 
ATOM     13  C   UNL     1      49.085  14.974  19.508  0.00  0.00    +0.018 C 
ATOM     14  C   UNL     1      48.763  14.570  18.064  0.00  0.00    +0.088 C 
ATOM     15  O   UNL     1      49.540  15.387  17.180  0.00  0.00    -0.189 OA
ATOM     16  C   UNL     1      47.279  14.829  17.796  0.00  0.00    -0.009 C 
ATOM     17  C   UNL     1      46.908  14.339  16.393  0.00  0.00    +0.030 C 
ATOM     18  C   UNL     1      47.233  12.853  16.249  0.00  0.00    -0.011 C 
ATOM     19  C   UNL     1      48.736  12.648  16.456  0.00  0.00    +0.168 C 
ATOM     22  C   UNL     1      49.107  13.099  17.869  0.00  0.00    +0.079 C 
ATOM     23  O   UNL     1      49.332  16.824  17.435  0.00  0.00    -0.194 OA
ATOM     24  C   UNL     1      47.021  16.336  17.861  0.00  0.00    -0.020 C 
ATOM     25  C   UNL     1      45.802  16.651  18.718  0.00  0.00    +0.027 C 
ATOM     26  C   UNL     1      45.512  18.161  18.707  0.00  0.00    +0.029 C 
ATOM     27  C   UNL     1      46.714  18.900  19.239  0.00  0.00    -0.047 C 
ATOM     28  C   UNL     1      46.851  18.671  20.744  0.00  0.00    +0.031 C 
ENDROOT
BRANCH  19  20
ATOM     20  O   UNL     1      49.056  11.264  16.296  0.00  0.00    -0.568 OA
ATOM     21  H   UNL     1      49.723  11.091  15.618  0.00  0.00    +0.381 HD
ENDBRANCH  19  20
BRANCH   7   6
ATOM      6  C   UNL     1      45.934  21.110  20.143  0.00  0.00    +0.060 C 
BRANCH   6   5
ATOM      4  C   UNL     1      43.542  21.168  19.653  0.00  0.00    -0.051 C 
ATOM      5  C   UNL     1      44.706  21.763  19.563  0.00  0.00    -0.052 C 
BRANCH   4   3
ATOM      3  C   UNL     1      42.315  21.821  19.074  0.00  0.00    +0.047 C 
BRANCH   3   2
ATOM      1  C   UNL     1      41.292  19.645  19.757  0.00  0.00    +0.013 C 
ATOM      2  C   UNL     1      41.296  20.744  18.693  0.00  0.00    -0.023 C 
ATOM     29  C   UNL     1      39.902  21.371  18.602  0.00  0.00    +0.014 C 
ENDBRANCH   3   2
ENDBRANCH   4   3
ENDBRANCH   6   5
ENDBRANCH   7   6
TORSDOF 5
ENDMDL
MODEL 4
REMARK VINA RESULT:      -5.9      4.357      6.032
REMARK  Name = ZINC95486041
REMARK  8 active torsions:
REMARK  status: ('A' for Active; 'I' for Inactive)
REMARK    1  A    between atoms: C1_1  and  C2_2
REMARK    2  A    between atoms: C2_2  and  C3_3
REMARK    3  A    between atoms: C2_2  and  C4_4
REMARK    4  A    between atoms: C4_4  and  C5_5
REMARK    5  A    between atoms: C6_6  and  C7_7
REMARK    6  A    between atoms: C7_7  and  C8_8
REMARK    7  A    between atoms: C12_14  and  C25_33
REMARK    8  A    between atoms: C23_27  and  O1_30
REMARK                            x       y       z     vdW  Elec       q    Type
REMARK                         _______ _______ _______ _____ _____    ______ ____
ROOT
ATOM      7  C   UNL     1      46.968  14.736  17.537  0.00  0.00    -0.001 C 
ATOM      8  C   UNL     1      45.949  13.951  18.407  0.00  0.00    +0.013 C 
ATOM      9  C   UNL     1      45.468  14.939  19.514  0.00  0.00    +0.024 C 
ATOM     10  C   UNL     1      45.819  16.292  18.880  0.00  0.00    +0.007 C 
ATOM     11  C   UNL     1      45.688  17.531  19.709  0.00  0.00    +0.109 C 
ATOM     12  C   UNL     1      46.374  17.463  21.067  0.00  0.00    +0.027 C 
ATOM     13  C   UNL     1      46.070  18.739  21.864  0.00  0.00    +0.018 C 
ATOM     14  C   UNL     1      45.302  19.720  20.970  0.00  0.00    +0.088 C 
ATOM     15  O   UNL     1      44.068  19.107  20.578  0.00  0.00    -0.189 OA
ATOM     16  C   UNL     1      46.133  20.002  19.715  0.00  0.00    -0.009 C 
ATOM     17  C   UNL     1      45.434  21.057  18.853  0.00  0.00    +0.030 C 
ATOM     18  C   UNL     1      45.218  22.338  19.657  0.00  0.00    -0.011 C 
ATOM     19  C   UNL     1      44.328  22.027  20.863  0.00  0.00    +0.168 C 
ATOM     22  C   UNL     1      45.036  21.002  21.749  0.00  0.00    +0.079 C 
ATOM     23  O   UNL     1      44.285  17.796  19.939  0.00  0.00    -0.194 OA
ATOM     24  C   UNL     1      46.244  18.712  18.898  0.00  0.00    -0.020 C 
ATOM     25  C   UNL     1      47.682  18.455  18.467  0.00  0.00    +0.027 C 
ATOM     26  C   UNL     1      47.761  17.200  17.583  0.00  0.00    +0.029 C 
ATOM     27  C   UNL     1      47.240  16.014  18.356  0.00  0.00    -0.047 C 
ATOM     28  C   UNL     1      48.229  15.624  19.453  0.00  0.00    +0.031 C 
ENDROOT
BRANCH  19  20
ATOM     20  O   UNL     1      44.096  23.225  21.607  0.00  0.00    -0.568 OA
ATOM     21  H   UNL     1      43.660  23.924  21.100  0.00  0.00    +0.381 HD
ENDBRANCH  19  20
BRANCH   7   6
ATOM      6  C   UNL     1      48.259  13.937  17.378  0.00  0.00    +0.060 C 
BRANCH   6   5
ATOM      4  C   UNL     1      49.380  13.202  15.337  0.00  0.00    -0.051 C 
ATOM      5  C   UNL     1      48.270  13.263  16.030  0.00  0.00    -0.052 C 
BRANCH   4   3
ATOM      3  C   UNL     1      49.391  12.528  13.990  0.00  0.00    +0.047 C 
BRANCH   3   2
ATOM      1  C   UNL     1      50.805  13.109  12.013  0.00  0.00    +0.013 C 
ATOM      2  C   UNL     1      50.816  12.531  13.429  0.00  0.00    -0.023 C 
ATOM     29  C   UNL     1      51.714  13.389  14.324  0.00  0.00    +0.014 C 
ENDBRANCH   3   2
ENDBRANCH   4   3
ENDBRANCH   6   5
ENDBRANCH   7   6
TORSDOF 5
ENDMDL
MODEL 5
REMARK VINA RESULT:      -5.9      2.555      4.240
REMARK  Name = ZINC95486041
REMARK  8 active torsions:
REMARK  status: ('A' for Active; 'I' for Inactive)
REMARK    1  A    between atoms: C1_1  and  C2_2
REMARK    2  A    between atoms: C2_2  and  C3_3
REMARK    3  A    between atoms: C2_2  and  C4_4
REMARK    4  A    between atoms: C4_4  and  C5_5
REMARK    5  A    between atoms: C6_6  and  C7_7
REMARK    6  A    between atoms: C7_7  and  C8_8
REMARK    7  A    between atoms: C12_14  and  C25_33
REMARK    8  A    between atoms: C23_27  and  O1_30
REMARK                            x       y       z     vdW  Elec       q    Type
REMARK                         _______ _______ _______ _____ _____    ______ ____
ROOT
ATOM      7  C   UNL     1      51.165  18.589  18.013  0.00  0.00    -0.001 C 
ATOM      8  C   UNL     1      50.710  17.200  17.489  0.00  0.00    +0.013 C 
ATOM      9  C   UNL     1      49.224  17.031  17.933  0.00  0.00    +0.024 C 
ATOM     10  C   UNL     1      48.817  18.491  18.178  0.00  0.00    +0.007 C 
ATOM     11  C   UNL     1      47.490  18.773  18.809  0.00  0.00    +0.109 C 
ATOM     12  C   UNL     1      47.215  17.994  20.088  0.00  0.00    +0.027 C 
ATOM     13  C   UNL     1      45.787  18.279  20.570  0.00  0.00    +0.018 C 
ATOM     14  C   UNL     1      45.165  19.368  19.687  0.00  0.00    +0.088 C 
ATOM     15  O   UNL     1      45.117  18.885  18.338  0.00  0.00    -0.189 OA
ATOM     16  C   UNL     1      46.054  20.612  19.734  0.00  0.00    -0.009 C 
ATOM     17  C   UNL     1      45.403  21.749  18.940  0.00  0.00    +0.030 C 
ATOM     18  C   UNL     1      44.014  22.055  19.498  0.00  0.00    -0.011 C 
ATOM     19  C   UNL     1      43.138  20.806  19.369  0.00  0.00    +0.168 C 
ATOM     22  C   UNL     1      43.761  19.678  20.191  0.00  0.00    +0.079 C 
ATOM     23  O   UNL     1      46.443  18.448  17.864  0.00  0.00    -0.194 OA
ATOM     24  C   UNL     1      47.399  20.282  19.082  0.00  0.00    -0.020 C 
ATOM     25  C   UNL     1      48.561  20.755  19.946  0.00  0.00    +0.027 C 
ATOM     26  C   UNL     1      49.900  20.486  19.240  0.00  0.00    +0.029 C 
ATOM     27  C   UNL     1      50.032  19.008  18.972  0.00  0.00    -0.047 C 
ATOM     28  C   UNL     1      50.270  18.254  20.280  0.00  0.00    +0.031 C 
ENDROOT
BRANCH  19  20
ATOM     20  O   UNL     1      41.827  21.090  19.863  0.00  0.00    -0.568 OA
ATOM     21  H   UNL     1      41.793  21.258  20.814  0.00  0.00    +0.381 HD
ENDBRANCH  19  20
BRANCH   7   6
ATOM      6  C   UNL     1      52.477  18.464  18.784  0.00  0.00    +0.060 C 
BRANCH   6   5
ATOM      4  C   UNL     1      53.824  16.600  19.604  0.00  0.00    -0.051 C 
ATOM      5  C   UNL     1      52.966  17.041  18.718  0.00  0.00    -0.052 C 
BRANCH   4   3
ATOM      3  C   UNL     1      54.312  15.177  19.538  0.00  0.00    +0.047 C 
BRANCH   3   2
ATOM      1  C   UNL     1      56.378  15.907  20.739  0.00  0.00    +0.013 C 
ATOM      2  C   UNL     1      55.843  15.163  19.514  0.00  0.00    -0.023 C 
ATOM     29  C   UNL     1      56.341  13.716  19.538  0.00  0.00    +0.014 C 
ENDBRANCH   3   2
ENDBRANCH   4   3
ENDBRANCH   6   5
ENDBRANCH   7   6
TORSDOF 5
ENDMDL
MODEL 6
REMARK VINA RESULT:      -5.8      4.623      6.675
REMARK  Name = ZINC95486041
REMARK  8 active torsions:
REMARK  status: ('A' for Active; 'I' for Inactive)
REMARK    1  A    between atoms: C1_1  and  C2_2
REMARK    2  A    between atoms: C2_2  and  C3_3
REMARK    3  A    between atoms: C2_2  and  C4_4
REMARK    4  A    between atoms: C4_4  and  C5_5
REMARK    5  A    between atoms: C6_6  and  C7_7
REMARK    6  A    between atoms: C7_7  and  C8_8
REMARK    7  A    between atoms: C12_14  and  C25_33
REMARK    8  A    between atoms: C23_27  and  O1_30
REMARK                            x       y       z     vdW  Elec       q    Type
REMARK                         _______ _______ _______ _____ _____    ______ ____
ROOT
ATOM      7  C   UNL     1      49.126  18.565  20.357  0.00  0.00    -0.001 C 
ATOM      8  C   UNL     1      48.982  17.891  21.748  0.00  0.00    +0.013 C 
ATOM      9  C   UNL     1      48.178  16.575  21.515  0.00  0.00    +0.024 C 
ATOM     10  C   UNL     1      48.402  16.351  20.013  0.00  0.00    +0.007 C 
ATOM     11  C   UNL     1      47.633  15.268  19.323  0.00  0.00    +0.109 C 
ATOM     12  C   UNL     1      46.131  15.300  19.569  0.00  0.00    +0.027 C 
ATOM     13  C   UNL     1      45.473  14.079  18.911  0.00  0.00    +0.018 C 
ATOM     14  C   UNL     1      46.527  13.316  18.100  0.00  0.00    +0.088 C 
ATOM     15  O   UNL     1      47.553  12.870  18.995  0.00  0.00    -0.189 OA
ATOM     16  C   UNL     1      47.147  14.267  17.074  0.00  0.00    -0.009 C 
ATOM     17  C   UNL     1      48.131  13.503  16.182  0.00  0.00    +0.030 C 
ATOM     18  C   UNL     1      47.422  12.343  15.486  0.00  0.00    -0.011 C 
ATOM     19  C   UNL     1      46.877  11.382  16.545  0.00  0.00    +0.168 C 
ATOM     22  C   UNL     1      45.864  12.127  17.415  0.00  0.00    +0.079 C 
ATOM     23  O   UNL     1      48.123  13.984  19.775  0.00  0.00    -0.194 OA
ATOM     24  C   UNL     1      47.921  15.358  17.817  0.00  0.00    -0.020 C 
ATOM     25  C   UNL     1      47.584  16.741  17.275  0.00  0.00    +0.027 C 
ATOM     26  C   UNL     1      48.429  17.815  17.979  0.00  0.00    +0.029 C 
ATOM     27  C   UNL     1      48.156  17.768  19.462  0.00  0.00    -0.047 C 
ATOM     28  C   UNL     1      46.755  18.302  19.757  0.00  0.00    +0.031 C 
ENDROOT
BRANCH  19  20
ATOM     20  O   UNL     1      46.236  10.277  15.903  0.00  0.00    -0.568 OA
ATOM     21  H   UNL     1      45.770  10.513  15.090  0.00  0.00    +0.381 HD
ENDBRANCH  19  20
BRANCH   7   6
ATOM      6  C   UNL     1      48.687  20.026  20.425  0.00  0.00    +0.060 C 
BRANCH   6   5
ATOM      4  C   UNL     1      50.544  20.424  18.890  0.00  0.00    -0.051 C 
ATOM      5  C   UNL     1      49.372  20.808  19.334  0.00  0.00    -0.052 C 
BRANCH   4   3
ATOM      3  C   UNL     1      51.229  21.205  17.800  0.00  0.00    +0.047 C 
BRANCH   3   2
ATOM      1  C   UNL     1      52.227  18.916  17.724  0.00  0.00    +0.013 C 
ATOM      2  C   UNL     1      52.224  20.299  17.071  0.00  0.00    -0.023 C 
ATOM     29  C   UNL     1      51.815  20.169  15.602  0.00  0.00    +0.014 C 
ENDBRANCH   3   2
ENDBRANCH   4   3
ENDBRANCH   6   5
ENDBRANCH   7   6
TORSDOF 5
ENDMDL
MODEL 7
REMARK VINA RESULT:      -5.7      4.207      6.443
REMARK  Name = ZINC95486041
REMARK  8 active torsions:
REMARK  status: ('A' for Active; 'I' for Inactive)
REMARK    1  A    between atoms: C1_1  and  C2_2
REMARK    2  A    between atoms: C2_2  and  C3_3
REMARK    3  A    between atoms: C2_2  and  C4_4
REMARK    4  A    between atoms: C4_4  and  C5_5
REMARK    5  A    between atoms: C6_6  and  C7_7
REMARK    6  A    between atoms: C7_7  and  C8_8
REMARK    7  A    between atoms: C12_14  and  C25_33
REMARK    8  A    between atoms: C23_27  and  O1_30
REMARK                            x       y       z     vdW  Elec       q    Type
REMARK                         _______ _______ _______ _____ _____    ______ ____
ROOT
ATOM      7  C   UNL     1      48.864  15.029  18.143  0.00  0.00    -0.001 C 
ATOM      8  C   UNL     1      49.754  15.170  19.407  0.00  0.00    +0.013 C 
ATOM      9  C   UNL     1      49.475  16.594  19.980  0.00  0.00    +0.024 C 
ATOM     10  C   UNL     1      48.115  16.911  19.344  0.00  0.00    +0.007 C 
ATOM     11  C   UNL     1      47.556  18.292  19.489  0.00  0.00    +0.109 C 
ATOM     12  C   UNL     1      48.518  19.410  19.112  0.00  0.00    +0.027 C 
ATOM     13  C   UNL     1      47.873  20.770  19.414  0.00  0.00    +0.018 C 
ATOM     14  C   UNL     1      46.421  20.552  19.856  0.00  0.00    +0.088 C 
ATOM     15  O   UNL     1      46.423  19.758  21.049  0.00  0.00    -0.189 OA
ATOM     16  C   UNL     1      45.679  19.788  18.757  0.00  0.00    -0.009 C 
ATOM     17  C   UNL     1      44.200  19.646  19.129  0.00  0.00    +0.030 C 
ATOM     18  C   UNL     1      43.575  21.023  19.347  0.00  0.00    -0.011 C 
ATOM     19  C   UNL     1      44.301  21.724  20.498  0.00  0.00    +0.168 C 
ATOM     22  C   UNL     1      45.771  21.905  20.118  0.00  0.00    +0.079 C 
ATOM     23  O   UNL     1      47.165  18.497  20.867  0.00  0.00    -0.194 OA
ATOM     24  C   UNL     1      46.280  18.385  18.638  0.00  0.00    -0.020 C 
ATOM     25  C   UNL     1      46.561  18.027  17.185  0.00  0.00    +0.027 C 
ATOM     26  C   UNL     1      47.090  16.587  17.080  0.00  0.00    +0.029 C 
ATOM     27  C   UNL     1      48.356  16.463  17.890  0.00  0.00    -0.047 C 
ATOM     28  C   UNL     1      49.497  17.212  17.203  0.00  0.00    +0.031 C 
ENDROOT
BRANCH  19  20
ATOM     20  O   UNL     1      43.706  23.003  20.729  0.00  0.00    -0.568 OA
ATOM     21  H   UNL     1      42.834  23.109  20.325  0.00  0.00    +0.381 HD
ENDBRANCH  19  20
BRANCH   7   6
ATOM      6  C   UNL     1      49.698  14.557  16.954  0.00  0.00    +0.060 C 
BRANCH   6   5
ATOM      4  C   UNL     1      47.926  13.241  15.910  0.00  0.00    -0.051 C 
ATOM      5  C   UNL     1      49.131  13.266  16.423  0.00  0.00    -0.052 C 
BRANCH   4   3
ATOM      3  C   UNL     1      47.359  11.950  15.380  0.00  0.00    +0.047 C 
BRANCH   3   2
ATOM      1  C   UNL     1      47.044  10.371  17.292  0.00  0.00    +0.013 C 
ATOM      2  C   UNL     1      46.349  11.386  16.383  0.00  0.00    -0.023 C 
ATOM     29  C   UNL     1      45.782  12.526  17.231  0.00  0.00    +0.014 C 
ENDBRANCH   3   2
ENDBRANCH   4   3
ENDBRANCH   6   5
ENDBRANCH   7   6
TORSDOF 5
ENDMDL
MODEL 8
REMARK VINA RESULT:      -5.5      4.399      8.452
REMARK  Name = ZINC95486041
REMARK  8 active torsions:
REMARK  status: ('A' for Active; 'I' for Inactive)
REMARK    1  A    between atoms: C1_1  and  C2_2
REMARK    2  A    between atoms: C2_2  and  C3_3
REMARK    3  A    between atoms: C2_2  and  C4_4
REMARK    4  A    between atoms: C4_4  and  C5_5
REMARK    5  A    between atoms: C6_6  and  C7_7
REMARK    6  A    between atoms: C7_7  and  C8_8
REMARK    7  A    between atoms: C12_14  and  C25_33
REMARK    8  A    between atoms: C23_27  and  O1_30
REMARK                            x       y       z     vdW  Elec       q    Type
REMARK                         _______ _______ _______ _____ _____    ______ ____
ROOT
ATOM      7  C   UNL     1      49.022  20.226  19.036  0.00  0.00    -0.001 C 
ATOM      8  C   UNL     1      50.378  20.777  18.518  0.00  0.00    +0.013 C 
ATOM      9  C   UNL     1      51.245  19.532  18.154  0.00  0.00    +0.024 C 
ATOM     10  C   UNL     1      50.164  18.455  17.984  0.00  0.00    +0.007 C 
ATOM     11  C   UNL     1      50.588  17.031  17.808  0.00  0.00    +0.109 C 
ATOM     12  C   UNL     1      51.583  16.530  18.846  0.00  0.00    +0.027 C 
ATOM     13  C   UNL     1      52.028  15.105  18.491  0.00  0.00    +0.018 C 
ATOM     14  C   UNL     1      51.209  14.605  17.295  0.00  0.00    +0.088 C 
ATOM     15  O   UNL     1      51.463  15.467  16.179  0.00  0.00    -0.189 OA
ATOM     16  C   UNL     1      49.721  14.681  17.646  0.00  0.00    -0.009 C 
ATOM     17  C   UNL     1      48.885  14.092  16.506  0.00  0.00    +0.030 C 
ATOM     18  C   UNL     1      49.305  12.649  16.233  0.00  0.00    -0.011 C 
ATOM     19  C   UNL     1      50.778  12.626  15.819  0.00  0.00    +0.168 C 
ATOM     22  C   UNL     1      51.623  13.176  16.968  0.00  0.00    +0.079 C 
ATOM     23  O   UNL     1      51.201  16.881  16.506  0.00  0.00    -0.194 OA
ATOM     24  C   UNL     1      49.329  16.150  17.820  0.00  0.00    -0.020 C 
ATOM     25  C   UNL     1      48.523  16.359  19.095  0.00  0.00    +0.027 C 
ATOM     26  C   UNL     1      48.072  17.824  19.211  0.00  0.00    +0.029 C 
ATOM     27  C   UNL     1      49.286  18.718  19.223  0.00  0.00    -0.047 C 
ATOM     28  C   UNL     1      50.038  18.570  20.545  0.00  0.00    +0.031 C 
ENDROOT
BRANCH  19  20
ATOM     20  O   UNL     1      51.174  11.282  15.534  0.00  0.00    -0.568 OA
ATOM     21  H   UNL     1      51.875  11.211  14.872  0.00  0.00    +0.381 HD
ENDBRANCH  19  20
BRANCH   7   6
ATOM      6  C   UNL     1      48.667  20.860  20.378  0.00  0.00    +0.060 C 
BRANCH   6   5
ATOM      4  C   UNL     1      46.509  21.150  19.275  0.00  0.00    -0.051 C 
ATOM      5  C   UNL     1      47.239  21.339  20.346  0.00  0.00    -0.052 C 
BRANCH   4   3
ATOM      3  C   UNL     1      45.081  21.629  19.242  0.00  0.00    +0.047 C 
BRANCH   3   2
ATOM      1  C   UNL     1      44.856  19.295  18.381  0.00  0.00    +0.013 C 
ATOM      2  C   UNL     1      44.142  20.426  19.121  0.00  0.00    -0.023 C 
ATOM     29  C   UNL     1      43.741  19.949  20.519  0.00  0.00    +0.014 C 
ENDBRANCH   3   2
ENDBRANCH   4   3
ENDBRANCH   6   5
ENDBRANCH   7   6
TORSDOF 5
ENDMDL
MODEL 9
REMARK VINA RESULT:      -5.5      3.040      4.688
REMARK  Name = ZINC95486041
REMARK  8 active torsions:
REMARK  status: ('A' for Active; 'I' for Inactive)
REMARK    1  A    between atoms: C1_1  and  C2_2
REMARK    2  A    between atoms: C2_2  and  C3_3
REMARK    3  A    between atoms: C2_2  and  C4_4
REMARK    4  A    between atoms: C4_4  and  C5_5
REMARK    5  A    between atoms: C6_6  and  C7_7
REMARK    6  A    between atoms: C7_7  and  C8_8
REMARK    7  A    between atoms: C12_14  and  C25_33
REMARK    8  A    between atoms: C23_27  and  O1_30
REMARK                            x       y       z     vdW  Elec       q    Type
REMARK                         _______ _______ _______ _____ _____    ______ ____
ROOT
ATOM      7  C   UNL     1      46.912  15.166  18.068  0.00  0.00    -0.001 C 
ATOM      8  C   UNL     1      45.796  14.401  18.828  0.00  0.00    +0.013 C 
ATOM      9  C   UNL     1      45.266  15.376  19.923  0.00  0.00    +0.024 C 
ATOM     10  C   UNL     1      45.720  16.731  19.362  0.00  0.00    +0.007 C 
ATOM     11  C   UNL     1      45.570  17.951  20.215  0.00  0.00    +0.109 C 
ATOM     12  C   UNL     1      46.140  17.817  21.621  0.00  0.00    +0.027 C 
ATOM     13  C   UNL     1      45.822  19.082  22.430  0.00  0.00    +0.018 C 
ATOM     14  C   UNL     1      45.169  20.119  21.507  0.00  0.00    +0.088 C 
ATOM     15  O   UNL     1      43.947  19.568  20.999  0.00  0.00    -0.189 OA
ATOM     16  C   UNL     1      46.108  20.400  20.333  0.00  0.00    -0.009 C 
ATOM     17  C   UNL     1      45.524  21.506  19.450  0.00  0.00    +0.030 C 
ATOM     18  C   UNL     1      45.293  22.773  20.273  0.00  0.00    -0.011 C 
ATOM     19  C   UNL     1      44.296  22.465  21.394  0.00  0.00    +0.168 C 
ATOM     22  C   UNL     1      44.889  21.388  22.302  0.00  0.00    +0.079 C 
ATOM     23  O   UNL     1      44.164  18.267  20.340  0.00  0.00    -0.194 OA
ATOM     24  C   UNL     1      46.236  19.130  19.488  0.00  0.00    -0.020 C 
ATOM     25  C   UNL     1      47.693  18.825  19.166  0.00  0.00    +0.027 C 
ATOM     26  C   UNL     1      47.795  17.593  18.252  0.00  0.00    +0.029 C 
ATOM     27  C   UNL     1      47.167  16.409  18.944  0.00  0.00    -0.047 C 
ATOM     28  C   UNL     1      48.048  15.948  20.105  0.00  0.00    +0.031 C 
ENDROOT
BRANCH  19  20
ATOM     20  O   UNL     1      44.051  23.651  22.153  0.00  0.00    -0.568 OA
ATOM     21  H   UNL     1      43.669  24.375  21.639  0.00  0.00    +0.381 HD
ENDBRANCH  19  20
BRANCH   7   6
ATOM      6  C   UNL     1      48.181  14.319  17.988  0.00  0.00    +0.060 C 
BRANCH   6   5
ATOM      4  C   UNL     1      50.425  15.191  17.585  0.00  0.00    -0.051 C 
ATOM      5  C   UNL     1      49.204  15.026  17.139  0.00  0.00    -0.052 C 
BRANCH   4   3
ATOM      3  C   UNL     1      51.449  15.898  16.736  0.00  0.00    +0.047 C 
BRANCH   3   2
ATOM      1  C   UNL     1      51.829  17.894  18.192  0.00  0.00    +0.013 C 
ATOM      2  C   UNL     1      51.255  17.412  16.858  0.00  0.00    -0.023 C 
ATOM     29  C   UNL     1      51.981  18.113  15.708  0.00  0.00    +0.014 C 
ENDBRANCH   3   2
ENDBRANCH   4   3
ENDBRANCH   6   5
ENDBRANCH   7   6
TORSDOF 5
ENDMDL
