MODEL 1
REMARK VINA RESULT:      -5.7      0.000      0.000
REMARK  Name = ZINC95486304
REMARK  20 active torsions:
REMARK  status: ('A' for Active; 'I' for Inactive)
REMARK    1  A    between atoms: C1_1  and  C2_2
REMARK    2  A    between atoms: C2_2  and  C35_45
REMARK    3  A    between atoms: C3_3  and  C4_4
REMARK    4  A    between atoms: C4_4  and  C5_5
REMARK    5  A    between atoms: C5_5  and  C6_6
REMARK    6  A    between atoms: C6_6  and  C34_44
REMARK    7  A    between atoms: C7_7  and  C8_8
REMARK    8  A    between atoms: C8_8  and  C9_9
REMARK    9  A    between atoms: C10_10  and  O7_43
REMARK   10  A    between atoms: C12_12  and  C15_16
REMARK   11  A    between atoms: C14_14  and  O1_15
REMARK   12  A    between atoms: C16_17  and  C17_18
REMARK   13  A    between atoms: C21_22  and  O2_24
REMARK   14  A    between atoms: O2_24  and  O3_25
REMARK   15  A    between atoms: O3_25  and  C23_26
REMARK   16  A    between atoms: C24_28  and  C33_42
REMARK   17  A    between atoms: C26_30  and  O6_41
REMARK   18  A    between atoms: C27_32  and  O5_40
REMARK   19  A    between atoms: C28_34  and  C31_38
REMARK   20  A    between atoms: C28_34  and  C32_39
REMARK                            x       y       z     vdW  Elec       q    Type
REMARK                         _______ _______ _______ _____ _____    ______ ____
ROOT
ATOM     19  C   UNL     1      49.650  14.768  18.965  0.00  0.00    -0.093 A 
ATOM     20  C   UNL     1      50.750  15.160  19.729  0.00  0.00    +0.090 A 
ATOM     21  C   UNL     1      51.909  14.408  19.719  0.00  0.00    -0.165 A 
ATOM     22  C   UNL     1      51.988  13.260  18.951  0.00  0.00    +0.167 A 
ATOM     23  O   UNL     1      53.108  12.492  18.910  0.00  0.00    -0.293 OA
ATOM     24  C   UNL     1      54.064  12.658  19.978  0.00  0.00    +0.132 C 
ATOM     25  C   UNL     1      53.462  12.056  21.247  0.00  0.00    +0.038 C 
ATOM     26  C   UNL     1      55.333  11.902  19.586  0.00  0.00    +0.032 C 
ATOM     27  C   UNL     1      56.441  12.179  20.599  0.00  0.00    +0.150 C 
ATOM     30  C   UNL     1      56.772  13.668  20.590  0.00  0.00    +0.189 C 
ATOM     33  C   UNL     1      55.548  14.511  20.947  0.00  0.00    -0.037 C 
ATOM     34  C   UNL     1      55.918  15.984  20.658  0.00  0.00    +0.043 C 
ATOM     35  C   UNL     1      55.274  14.398  22.447  0.00  0.00    +0.041 C 
ATOM     36  C   UNL     1      54.345  14.150  20.099  0.00  0.00    -0.007 C 
ATOM     37  C   UNL     1      50.888  12.862  18.183  0.00  0.00    +0.031 A 
ATOM     41  C   UNL     1      53.076  14.866  20.566  0.00  0.00    +0.102 C 
ATOM     42  C   UNL     1      49.727  13.607  18.189  0.00  0.00    +0.085 A 
ENDROOT
BRANCH  19  18
ATOM     17  C   UNL     1      47.675  15.650  20.094  0.00  0.00    +0.011 C 
ATOM     18  C   UNL     1      48.415  15.570  18.976  0.00  0.00    +0.037 C 
BRANCH  17  16
ATOM     11  C   UNL     1      44.112  17.967  20.125  0.00  0.00    -0.126 A 
ATOM     12  C   UNL     1      44.395  17.118  21.186  0.00  0.00    +0.128 A 
ATOM     15  C   UNL     1      45.554  16.361  21.181  0.00  0.00    -0.006 A 
ATOM     16  C   UNL     1      46.440  16.453  20.105  0.00  0.00    -0.025 A 
ATOM     43  C   UNL     1      46.151  17.308  19.038  0.00  0.00    -0.013 A 
ATOM     44  C   UNL     1      44.986  18.057  19.051  0.00  0.00    +0.125 A 
BRANCH  12  13
ATOM     13  O   UNL     1      43.532  17.031  22.233  0.00  0.00    -0.491 OA
ATOM     14  H   UNL     1      42.843  16.361  22.120  0.00  0.00    +0.390 HD
ENDBRANCH  12  13
BRANCH  44  45
ATOM     45  O   UNL     1      44.702  18.886  18.012  0.00  0.00    -0.492 OA
ATOM     46  H   UNL     1      45.463  19.387  17.688  0.00  0.00    +0.391 HD
ENDBRANCH  44  45
BRANCH  11  10
ATOM     10  C   UNL     1      42.849  18.790  20.136  0.00  0.00    +0.120 C 
BRANCH  10   9
ATOM      7  C   UNL     1      42.637  21.113  19.418  0.00  0.00    -0.126 C 
ATOM      8  C   UNL     1      41.700  20.633  18.339  0.00  0.00    +0.075 C 
ATOM      9  C   UNL     1      43.204  20.251  20.226  0.00  0.00    -0.042 C 
BRANCH   7   6
ATOM      6  C   UNL     1      42.921  22.586  19.568  0.00  0.00    +0.060 C 
BRANCH   6   5
ATOM      5  C   UNL     1      44.308  22.777  20.187  0.00  0.00    +0.053 C 
BRANCH   5   4
ATOM      1  C   UNL     1      46.523  21.486  21.353  0.00  0.00    +0.071 C 
ATOM      2  C   UNL     1      46.374  21.520  19.855  0.00  0.00    -0.132 C 
ATOM      3  C   UNL     1      47.410  20.862  18.979  0.00  0.00    +0.071 C 
ATOM      4  C   UNL     1      45.344  22.120  19.311  0.00  0.00    -0.061 C 
ENDBRANCH   5   4
ENDBRANCH   6   5
ENDBRANCH   7   6
ENDBRANCH  10   9
ENDBRANCH  11  10
ENDBRANCH  17  16
ENDBRANCH  19  18
BRANCH  27  28
ATOM     28  O   UNL     1      57.610  11.436  20.228  0.00  0.00    -0.567 OA
ATOM     29  H   UNL     1      57.714  11.318  19.274  0.00  0.00    +0.385 HD
ENDBRANCH  27  28
BRANCH  30  31
ATOM     31  O   UNL     1      57.247  14.048  19.295  0.00  0.00    -0.555 OA
ATOM     32  H   UNL     1      56.804  14.824  18.926  0.00  0.00    +0.385 HD
ENDBRANCH  30  31
BRANCH  37  38
ATOM     38  O   UNL     1      50.965  11.734  17.428  0.00  0.00    -0.165 OA
BRANCH  38  39
ATOM     39  O   UNL     1      51.001  11.985  15.981  0.00  0.00    -0.241 OA
ATOM     40  C   UNL     1      52.279  11.759  15.383  0.00  0.00    +0.234 C 
ENDBRANCH  38  39
ENDBRANCH  37  38
TORSDOF 13
ENDMDL
MODEL 2
REMARK VINA RESULT:      -5.3      2.451     11.436
REMARK  Name = ZINC95486304
REMARK  20 active torsions:
REMARK  status: ('A' for Active; 'I' for Inactive)
REMARK    1  A    between atoms: C1_1  and  C2_2
REMARK    2  A    between atoms: C2_2  and  C35_45
REMARK    3  A    between atoms: C3_3  and  C4_4
REMARK    4  A    between atoms: C4_4  and  C5_5
REMARK    5  A    between atoms: C5_5  and  C6_6
REMARK    6  A    between atoms: C6_6  and  C34_44
REMARK    7  A    between atoms: C7_7  and  C8_8
REMARK    8  A    between atoms: C8_8  and  C9_9
REMARK    9  A    between atoms: C10_10  and  O7_43
REMARK   10  A    between atoms: C12_12  and  C15_16
REMARK   11  A    between atoms: C14_14  and  O1_15
REMARK   12  A    between atoms: C16_17  and  C17_18
REMARK   13  A    between atoms: C21_22  and  O2_24
REMARK   14  A    between atoms: O2_24  and  O3_25
REMARK   15  A    between atoms: O3_25  and  C23_26
REMARK   16  A    between atoms: C24_28  and  C33_42
REMARK   17  A    between atoms: C26_30  and  O6_41
REMARK   18  A    between atoms: C27_32  and  O5_40
REMARK   19  A    between atoms: C28_34  and  C31_38
REMARK   20  A    between atoms: C28_34  and  C32_39
REMARK                            x       y       z     vdW  Elec       q    Type
REMARK                         _______ _______ _______ _____ _____    ______ ____
ROOT
ATOM     19  C   UNL     1      50.082  17.768  19.871  0.00  0.00    -0.093 A 
ATOM     20  C   UNL     1      48.770  17.700  20.345  0.00  0.00    +0.090 A 
ATOM     21  C   UNL     1      47.921  18.781  20.202  0.00  0.00    -0.165 A 
ATOM     22  C   UNL     1      48.365  19.938  19.587  0.00  0.00    +0.167 A 
ATOM     23  O   UNL     1      47.563  21.024  19.425  0.00  0.00    -0.293 OA
ATOM     24  C   UNL     1      46.384  21.105  20.251  0.00  0.00    +0.132 C 
ATOM     25  C   UNL     1      46.831  21.407  21.681  0.00  0.00    +0.038 C 
ATOM     26  C   UNL     1      45.521  22.248  19.715  0.00  0.00    +0.032 C 
ATOM     27  C   UNL     1      44.180  22.277  20.445  0.00  0.00    +0.150 C 
ATOM     30  C   UNL     1      43.433  20.973  20.178  0.00  0.00    +0.189 C 
ATOM     33  C   UNL     1      44.237  19.765  20.659  0.00  0.00    -0.037 C 
ATOM     34  C   UNL     1      43.522  18.506  20.115  0.00  0.00    +0.043 C 
ATOM     35  C   UNL     1      44.181  19.694  22.185  0.00  0.00    +0.041 C 
ATOM     36  C   UNL     1      45.653  19.776  20.121  0.00  0.00    -0.007 C 
ATOM     37  C   UNL     1      49.678  20.012  19.111  0.00  0.00    +0.031 A 
ATOM     41  C   UNL     1      46.510  18.667  20.734  0.00  0.00    +0.102 C 
ATOM     42  C   UNL     1      50.533  18.938  19.251  0.00  0.00    +0.085 A 
ENDROOT
BRANCH  19  18
ATOM     17  C   UNL     1      50.564  15.382  19.700  0.00  0.00    +0.011 C 
ATOM     18  C   UNL     1      50.986  16.615  20.024  0.00  0.00    +0.037 C 
BRANCH  17  16
ATOM     11  C   UNL     1      53.177  12.059  20.142  0.00  0.00    -0.126 A 
ATOM     12  C   UNL     1      52.706  12.723  21.266  0.00  0.00    +0.128 A 
ATOM     15  C   UNL     1      51.855  13.806  21.127  0.00  0.00    -0.006 A 
ATOM     16  C   UNL     1      51.470  14.229  19.853  0.00  0.00    -0.025 A 
ATOM     43  C   UNL     1      51.947  13.559  18.725  0.00  0.00    -0.013 A 
ATOM     44  C   UNL     1      52.802  12.480  18.874  0.00  0.00    +0.125 A 
BRANCH  12  13
ATOM     13  O   UNL     1      53.081  12.308  22.505  0.00  0.00    -0.491 OA
ATOM     14  H   UNL     1      53.073  11.348  22.617  0.00  0.00    +0.390 HD
ENDBRANCH  12  13
BRANCH  44  45
ATOM     45  O   UNL     1      53.271  11.829  17.776  0.00  0.00    -0.492 OA
ATOM     46  H   UNL     1      53.742  12.398  17.153  0.00  0.00    +0.391 HD
ENDBRANCH  44  45
BRANCH  11  10
ATOM     10  C   UNL     1      54.103  10.880  20.298  0.00  0.00    +0.120 C 
BRANCH  10   9
ATOM      7  C   UNL     1      56.265  11.871  20.846  0.00  0.00    -0.126 C 
ATOM      8  C   UNL     1      56.430  12.178  19.380  0.00  0.00    +0.075 C 
ATOM      9  C   UNL     1      55.202  11.230  21.267  0.00  0.00    -0.042 C 
BRANCH   7   6
ATOM      6  C   UNL     1      57.322  12.303  21.830  0.00  0.00    +0.060 C 
BRANCH   6   5
ATOM      5  C   UNL     1      57.525  13.817  21.728  0.00  0.00    +0.053 C 
BRANCH   5   4
ATOM      1  C   UNL     1      56.667  15.888  20.023  0.00  0.00    +0.071 C 
ATOM      2  C   UNL     1      55.819  15.481  21.200  0.00  0.00    -0.132 C 
ATOM      3  C   UNL     1      54.511  16.182  21.465  0.00  0.00    +0.071 C 
ATOM      4  C   UNL     1      56.218  14.518  21.993  0.00  0.00    -0.061 C 
ENDBRANCH   5   4
ENDBRANCH   6   5
ENDBRANCH   7   6
ENDBRANCH  10   9
ENDBRANCH  11  10
ENDBRANCH  17  16
ENDBRANCH  19  18
BRANCH  27  28
ATOM     28  O   UNL     1      43.401  23.374  19.948  0.00  0.00    -0.567 OA
ATOM     29  H   UNL     1      43.248  24.073  20.598  0.00  0.00    +0.385 HD
ENDBRANCH  27  28
BRANCH  30  31
ATOM     31  O   UNL     1      43.176  20.843  18.777  0.00  0.00    -0.555 OA
ATOM     32  H   UNL     1      42.950  21.676  18.340  0.00  0.00    +0.385 HD
ENDBRANCH  30  31
BRANCH  37  38
ATOM     38  O   UNL     1      50.115  21.149  18.507  0.00  0.00    -0.165 OA
BRANCH  38  39
ATOM     39  O   UNL     1      51.455  21.035  17.916  0.00  0.00    -0.241 OA
ATOM     40  C   UNL     1      51.472  21.132  16.490  0.00  0.00    +0.234 C 
ENDBRANCH  38  39
ENDBRANCH  37  38
TORSDOF 13
ENDMDL
MODEL 3
REMARK VINA RESULT:      -4.7      2.015     11.176
REMARK  Name = ZINC95486304
REMARK  20 active torsions:
REMARK  status: ('A' for Active; 'I' for Inactive)
REMARK    1  A    between atoms: C1_1  and  C2_2
REMARK    2  A    between atoms: C2_2  and  C35_45
REMARK    3  A    between atoms: C3_3  and  C4_4
REMARK    4  A    between atoms: C4_4  and  C5_5
REMARK    5  A    between atoms: C5_5  and  C6_6
REMARK    6  A    between atoms: C6_6  and  C34_44
REMARK    7  A    between atoms: C7_7  and  C8_8
REMARK    8  A    between atoms: C8_8  and  C9_9
REMARK    9  A    between atoms: C10_10  and  O7_43
REMARK   10  A    between atoms: C12_12  and  C15_16
REMARK   11  A    between atoms: C14_14  and  O1_15
REMARK   12  A    between atoms: C16_17  and  C17_18
REMARK   13  A    between atoms: C21_22  and  O2_24
REMARK   14  A    between atoms: O2_24  and  O3_25
REMARK   15  A    between atoms: O3_25  and  C23_26
REMARK   16  A    between atoms: C24_28  and  C33_42
REMARK   17  A    between atoms: C26_30  and  O6_41
REMARK   18  A    between atoms: C27_32  and  O5_40
REMARK   19  A    between atoms: C28_34  and  C31_38
REMARK   20  A    between atoms: C28_34  and  C32_39
REMARK                            x       y       z     vdW  Elec       q    Type
REMARK                         _______ _______ _______ _____ _____    ______ ____
ROOT
ATOM     19  C   UNL     1      48.625  15.424  20.035  0.00  0.00    -0.093 A 
ATOM     20  C   UNL     1      48.584  16.818  20.092  0.00  0.00    +0.090 A 
ATOM     21  C   UNL     1      47.376  17.483  20.012  0.00  0.00    -0.165 A 
ATOM     22  C   UNL     1      46.197  16.772  19.875  0.00  0.00    +0.167 A 
ATOM     23  O   UNL     1      44.987  17.386  19.794  0.00  0.00    -0.293 OA
ATOM     24  C   UNL     1      44.978  18.786  19.447  0.00  0.00    +0.132 C 
ATOM     25  C   UNL     1      45.356  18.908  17.971  0.00  0.00    +0.038 C 
ATOM     26  C   UNL     1      43.559  19.309  19.673  0.00  0.00    +0.032 C 
ATOM     27  C   UNL     1      43.524  20.824  19.483  0.00  0.00    +0.150 C 
ATOM     30  C   UNL     1      44.428  21.483  20.520  0.00  0.00    +0.189 C 
ATOM     33  C   UNL     1      45.871  20.997  20.387  0.00  0.00    -0.037 C 
ATOM     34  C   UNL     1      46.634  21.518  21.627  0.00  0.00    +0.043 C 
ATOM     35  C   UNL     1      46.512  21.640  19.157  0.00  0.00    +0.041 C 
ATOM     36  C   UNL     1      45.961  19.485  20.376  0.00  0.00    -0.007 C 
ATOM     37  C   UNL     1      46.232  15.375  19.818  0.00  0.00    +0.031 A 
ATOM     41  C   UNL     1      47.377  18.995  20.072  0.00  0.00    +0.102 C 
ATOM     42  C   UNL     1      47.435  14.703  19.895  0.00  0.00    +0.085 A 
ENDROOT
BRANCH  19  18
ATOM     17  C   UNL     1      49.972  13.395  19.883  0.00  0.00    +0.011 C 
ATOM     18  C   UNL     1      49.914  14.715  20.121  0.00  0.00    +0.037 C 
BRANCH  17  16
ATOM     11  C   UNL     1      53.692  11.353  20.129  0.00  0.00    -0.126 A 
ATOM     12  C   UNL     1      53.109  11.582  18.891  0.00  0.00    +0.128 A 
ATOM     15  C   UNL     1      51.897  12.246  18.805  0.00  0.00    -0.006 A 
ATOM     16  C   UNL     1      51.262  12.687  19.969  0.00  0.00    -0.025 A 
ATOM     43  C   UNL     1      51.852  12.454  21.213  0.00  0.00    -0.013 A 
ATOM     44  C   UNL     1      53.062  11.784  21.289  0.00  0.00    +0.125 A 
BRANCH  12  13
ATOM     13  O   UNL     1      53.729  11.153  17.760  0.00  0.00    -0.491 OA
ATOM     14  H   UNL     1      54.219  11.845  17.294  0.00  0.00    +0.390 HD
ENDBRANCH  12  13
BRANCH  44  45
ATOM     45  O   UNL     1      53.635  11.553  22.499  0.00  0.00    -0.492 OA
ATOM     46  H   UNL     1      53.001  11.373  23.207  0.00  0.00    +0.391 HD
ENDBRANCH  44  45
BRANCH  11  10
ATOM     10  C   UNL     1      55.012  10.630  20.217  0.00  0.00    +0.120 C 
BRANCH  10   9
ATOM      7  C   UNL     1      56.654  12.366  20.716  0.00  0.00    -0.126 C 
ATOM      8  C   UNL     1      56.645  12.714  19.250  0.00  0.00    +0.075 C 
ATOM      9  C   UNL     1      55.927  11.370  21.159  0.00  0.00    -0.042 C 
BRANCH   7   6
ATOM      6  C   UNL     1      57.500  13.165  21.675  0.00  0.00    +0.060 C 
BRANCH   6   5
ATOM      5  C   UNL     1      57.079  14.636  21.623  0.00  0.00    +0.053 C 
BRANCH   5   4
ATOM      1  C   UNL     1      54.764  15.486  20.261  0.00  0.00    +0.071 C 
ATOM      2  C   UNL     1      54.709  15.210  21.741  0.00  0.00    -0.132 C 
ATOM      3  C   UNL     1      53.415  15.389  22.494  0.00  0.00    +0.071 C 
ATOM      4  C   UNL     1      55.785  14.814  22.375  0.00  0.00    -0.061 C 
ENDBRANCH   5   4
ENDBRANCH   6   5
ENDBRANCH   7   6
ENDBRANCH  10   9
ENDBRANCH  11  10
ENDBRANCH  17  16
ENDBRANCH  19  18
BRANCH  27  28
ATOM     28  O   UNL     1      42.180  21.287  19.669  0.00  0.00    -0.567 OA
ATOM     29  H   UNL     1      41.933  21.416  20.595  0.00  0.00    +0.385 HD
ENDBRANCH  27  28
BRANCH  30  31
ATOM     31  O   UNL     1      43.947  21.187  21.834  0.00  0.00    -0.555 OA
ATOM     32  H   UNL     1      43.106  20.710  21.847  0.00  0.00    +0.385 HD
ENDBRANCH  30  31
BRANCH  37  38
ATOM     38  O   UNL     1      45.074  14.675  19.683  0.00  0.00    -0.165 OA
BRANCH  38  39
ATOM     39  O   UNL     1      45.268  13.240  19.435  0.00  0.00    -0.241 OA
ATOM     40  C   UNL     1      45.120  12.862  18.064  0.00  0.00    +0.234 C 
ENDBRANCH  38  39
ENDBRANCH  37  38
TORSDOF 13
ENDMDL
MODEL 4
REMARK VINA RESULT:      -4.5      2.498      4.036
REMARK  Name = ZINC95486304
REMARK  20 active torsions:
REMARK  status: ('A' for Active; 'I' for Inactive)
REMARK    1  A    between atoms: C1_1  and  C2_2
REMARK    2  A    between atoms: C2_2  and  C35_45
REMARK    3  A    between atoms: C3_3  and  C4_4
REMARK    4  A    between atoms: C4_4  and  C5_5
REMARK    5  A    between atoms: C5_5  and  C6_6
REMARK    6  A    between atoms: C6_6  and  C34_44
REMARK    7  A    between atoms: C7_7  and  C8_8
REMARK    8  A    between atoms: C8_8  and  C9_9
REMARK    9  A    between atoms: C10_10  and  O7_43
REMARK   10  A    between atoms: C12_12  and  C15_16
REMARK   11  A    between atoms: C14_14  and  O1_15
REMARK   12  A    between atoms: C16_17  and  C17_18
REMARK   13  A    between atoms: C21_22  and  O2_24
REMARK   14  A    between atoms: O2_24  and  O3_25
REMARK   15  A    between atoms: O3_25  and  C23_26
REMARK   16  A    between atoms: C24_28  and  C33_42
REMARK   17  A    between atoms: C26_30  and  O6_41
REMARK   18  A    between atoms: C27_32  and  O5_40
REMARK   19  A    between atoms: C28_34  and  C31_38
REMARK   20  A    between atoms: C28_34  and  C32_39
REMARK                            x       y       z     vdW  Elec       q    Type
REMARK                         _______ _______ _______ _____ _____    ______ ____
ROOT
ATOM     19  C   UNL     1      50.072  16.916  20.911  0.00  0.00    -0.093 A 
ATOM     20  C   UNL     1      50.700  15.710  20.595  0.00  0.00    +0.090 A 
ATOM     21  C   UNL     1      52.068  15.578  20.739  0.00  0.00    -0.165 A 
ATOM     22  C   UNL     1      52.825  16.642  21.198  0.00  0.00    +0.167 A 
ATOM     23  O   UNL     1      54.172  16.555  21.356  0.00  0.00    -0.293 OA
ATOM     24  C   UNL     1      54.853  15.489  20.663  0.00  0.00    +0.132 C 
ATOM     25  C   UNL     1      54.854  15.821  19.172  0.00  0.00    +0.038 C 
ATOM     26  C   UNL     1      56.286  15.433  21.192  0.00  0.00    +0.032 C 
ATOM     27  C   UNL     1      57.009  14.216  20.619  0.00  0.00    +0.150 C 
ATOM     30  C   UNL     1      56.299  12.946  21.078  0.00  0.00    +0.189 C 
ATOM     33  C   UNL     1      54.843  12.925  20.615  0.00  0.00    -0.037 C 
ATOM     34  C   UNL     1      54.159  11.744  21.342  0.00  0.00    +0.043 C 
ATOM     35  C   UNL     1      54.791  12.626  19.117  0.00  0.00    +0.041 C 
ATOM     36  C   UNL     1      54.111  14.199  20.989  0.00  0.00    -0.007 C 
ATOM     37  C   UNL     1      52.201  17.852  21.516  0.00  0.00    +0.031 A 
ATOM     41  C   UNL     1      52.709  14.256  20.380  0.00  0.00    +0.102 C 
ATOM     42  C   UNL     1      50.836  17.992  21.373  0.00  0.00    +0.085 A 
ENDROOT
BRANCH  19  18
ATOM     17  C   UNL     1      48.062  18.275  20.652  0.00  0.00    +0.011 C 
ATOM     18  C   UNL     1      48.614  17.055  20.757  0.00  0.00    +0.037 C 
BRANCH  17  16
ATOM     11  C   UNL     1      43.854  18.674  20.207  0.00  0.00    -0.126 A 
ATOM     12  C   UNL     1      44.695  18.992  19.150  0.00  0.00    +0.128 A 
ATOM     15  C   UNL     1      46.066  18.864  19.290  0.00  0.00    -0.006 A 
ATOM     16  C   UNL     1      46.602  18.413  20.498  0.00  0.00    -0.025 A 
ATOM     43  C   UNL     1      45.752  18.095  21.560  0.00  0.00    -0.013 A 
ATOM     44  C   UNL     1      44.382  18.231  21.412  0.00  0.00    +0.125 A 
BRANCH  12  13
ATOM     13  O   UNL     1      44.170  19.430  17.975  0.00  0.00    -0.491 OA
ATOM     14  H   UNL     1      43.595  18.787  17.537  0.00  0.00    +0.390 HD
ENDBRANCH  12  13
BRANCH  44  45
ATOM     45  O   UNL     1      43.554  17.926  22.445  0.00  0.00    -0.492 OA
ATOM     46  H   UNL     1      43.691  18.470  23.233  0.00  0.00    +0.391 HD
ENDBRANCH  44  45
BRANCH  11  10
ATOM     10  C   UNL     1      42.361  18.814  20.049  0.00  0.00    +0.120 C 
BRANCH  10   9
ATOM      7  C   UNL     1      41.205  20.619  18.881  0.00  0.00    -0.126 C 
ATOM      8  C   UNL     1      40.697  19.585  17.909  0.00  0.00    +0.075 C 
ATOM      9  C   UNL     1      42.013  20.266  19.851  0.00  0.00    -0.042 C 
BRANCH   7   6
ATOM      6  C   UNL     1      40.783  22.059  18.738  0.00  0.00    +0.060 C 
BRANCH   6   5
ATOM      5  C   UNL     1      42.025  22.945  18.622  0.00  0.00    +0.053 C 
BRANCH   5   4
ATOM      1  C   UNL     1      44.425  24.383  18.957  0.00  0.00    +0.071 C 
ATOM      2  C   UNL     1      44.238  23.057  19.647  0.00  0.00    -0.132 C 
ATOM      3  C   UNL     1      45.336  22.499  20.517  0.00  0.00    +0.071 C 
ATOM      4  C   UNL     1      43.123  22.388  19.492  0.00  0.00    -0.061 C 
ENDBRANCH   5   4
ENDBRANCH   6   5
ENDBRANCH   7   6
ENDBRANCH  10   9
ENDBRANCH  11  10
ENDBRANCH  17  16
ENDBRANCH  19  18
BRANCH  27  28
ATOM     28  O   UNL     1      58.358  14.203  21.103  0.00  0.00    -0.567 OA
ATOM     29  H   UNL     1      58.550  14.896  21.750  0.00  0.00    +0.385 HD
ENDBRANCH  27  28
BRANCH  30  31
ATOM     31  O   UNL     1      56.344  12.859  22.505  0.00  0.00    -0.555 OA
ATOM     32  H   UNL     1      56.479  11.962  22.841  0.00  0.00    +0.385 HD
ENDBRANCH  30  31
BRANCH  37  38
ATOM     38  O   UNL     1      52.945  18.898  21.967  0.00  0.00    -0.165 OA
BRANCH  38  39
ATOM     39  O   UNL     1      52.236  20.185  21.952  0.00  0.00    -0.241 OA
ATOM     40  C   UNL     1      52.562  21.015  20.834  0.00  0.00    +0.234 C 
ENDBRANCH  38  39
ENDBRANCH  37  38
TORSDOF 13
ENDMDL
MODEL 5
REMARK VINA RESULT:      -4.1      2.852      4.462
REMARK  Name = ZINC95486304
REMARK  20 active torsions:
REMARK  status: ('A' for Active; 'I' for Inactive)
REMARK    1  A    between atoms: C1_1  and  C2_2
REMARK    2  A    between atoms: C2_2  and  C35_45
REMARK    3  A    between atoms: C3_3  and  C4_4
REMARK    4  A    between atoms: C4_4  and  C5_5
REMARK    5  A    between atoms: C5_5  and  C6_6
REMARK    6  A    between atoms: C6_6  and  C34_44
REMARK    7  A    between atoms: C7_7  and  C8_8
REMARK    8  A    between atoms: C8_8  and  C9_9
REMARK    9  A    between atoms: C10_10  and  O7_43
REMARK   10  A    between atoms: C12_12  and  C15_16
REMARK   11  A    between atoms: C14_14  and  O1_15
REMARK   12  A    between atoms: C16_17  and  C17_18
REMARK   13  A    between atoms: C21_22  and  O2_24
REMARK   14  A    between atoms: O2_24  and  O3_25
REMARK   15  A    between atoms: O3_25  and  C23_26
REMARK   16  A    between atoms: C24_28  and  C33_42
REMARK   17  A    between atoms: C26_30  and  O6_41
REMARK   18  A    between atoms: C27_32  and  O5_40
REMARK   19  A    between atoms: C28_34  and  C31_38
REMARK   20  A    between atoms: C28_34  and  C32_39
REMARK                            x       y       z     vdW  Elec       q    Type
REMARK                         _______ _______ _______ _____ _____    ______ ____
ROOT
ATOM     19  C   UNL     1      49.459  18.511  19.101  0.00  0.00    -0.093 A 
ATOM     20  C   UNL     1      49.799  17.273  19.648  0.00  0.00    +0.090 A 
ATOM     21  C   UNL     1      51.116  16.855  19.659  0.00  0.00    -0.165 A 
ATOM     22  C   UNL     1      52.108  17.661  19.128  0.00  0.00    +0.167 A 
ATOM     23  O   UNL     1      53.415  17.290  19.120  0.00  0.00    -0.293 OA
ATOM     24  C   UNL     1      53.706  15.889  19.299  0.00  0.00    +0.132 C 
ATOM     25  C   UNL     1      53.288  15.154  18.026  0.00  0.00    +0.038 C 
ATOM     26  C   UNL     1      55.213  15.753  19.516  0.00  0.00    +0.032 C 
ATOM     27  C   UNL     1      55.562  14.311  19.879  0.00  0.00    +0.150 C 
ATOM     30  C   UNL     1      54.873  13.940  21.189  0.00  0.00    +0.189 C 
ATOM     33  C   UNL     1      53.355  14.073  21.075  0.00  0.00    -0.037 C 
ATOM     34  C   UNL     1      52.784  13.930  22.505  0.00  0.00    +0.043 C 
ATOM     35  C   UNL     1      52.805  12.910  20.249  0.00  0.00    +0.041 C 
ATOM     36  C   UNL     1      52.943  15.427  20.534  0.00  0.00    -0.007 C 
ATOM     37  C   UNL     1      51.772  18.903  18.579  0.00  0.00    +0.031 A 
ATOM     41  C   UNL     1      51.441  15.504  20.256  0.00  0.00    +0.102 C 
ATOM     42  C   UNL     1      50.459  19.327  18.562  0.00  0.00    +0.085 A 
ENDROOT
BRANCH  19  18
ATOM     17  C   UNL     1      47.764  20.266  19.156  0.00  0.00    +0.011 C 
ATOM     18  C   UNL     1      48.055  18.956  19.089  0.00  0.00    +0.037 C 
BRANCH  17  16
ATOM     11  C   UNL     1      43.711  21.546  19.121  0.00  0.00    -0.126 A 
ATOM     12  C   UNL     1      44.092  20.434  18.383  0.00  0.00    +0.128 A 
ATOM     15  C   UNL     1      45.411  20.013  18.391  0.00  0.00    -0.006 A 
ATOM     16  C   UNL     1      46.358  20.710  19.144  0.00  0.00    -0.025 A 
ATOM     43  C   UNL     1      45.971  21.829  19.884  0.00  0.00    -0.013 A 
ATOM     44  C   UNL     1      44.651  22.245  19.866  0.00  0.00    +0.125 A 
BRANCH  12  13
ATOM     13  O   UNL     1      43.167  19.757  17.652  0.00  0.00    -0.491 OA
ATOM     14  H   UNL     1      42.997  20.141  16.781  0.00  0.00    +0.390 HD
ENDBRANCH  12  13
BRANCH  44  45
ATOM     45  O   UNL     1      44.273  23.337  20.582  0.00  0.00    -0.492 OA
ATOM     46  H   UNL     1      44.857  24.100  20.474  0.00  0.00    +0.391 HD
ENDBRANCH  44  45
BRANCH  11  10
ATOM     10  C   UNL     1      42.274  22.000  19.110  0.00  0.00    +0.120 C 
BRANCH  10   9
ATOM      7  C   UNL     1      40.654  20.274  19.707  0.00  0.00    -0.126 C 
ATOM      8  C   UNL     1      40.415  20.071  18.233  0.00  0.00    +0.075 C 
ATOM      9  C   UNL     1      41.487  21.200  20.115  0.00  0.00    -0.042 C 
BRANCH   7   6
ATOM      6  C   UNL     1      39.936  19.411  20.713  0.00  0.00    +0.060 C 
BRANCH   6   5
ATOM      5  C   UNL     1      40.893  19.050  21.851  0.00  0.00    +0.053 C 
BRANCH   5   4
ATOM      1  C   UNL     1      43.610  19.593  22.360  0.00  0.00    +0.071 C 
ATOM      2  C   UNL     1      43.221  18.369  21.572  0.00  0.00    -0.132 C 
ATOM      3  C   UNL     1      44.286  17.435  21.056  0.00  0.00    +0.071 C 
ATOM      4  C   UNL     1      41.958  18.116  21.335  0.00  0.00    -0.061 C 
ENDBRANCH   5   4
ENDBRANCH   6   5
ENDBRANCH   7   6
ENDBRANCH  10   9
ENDBRANCH  11  10
ENDBRANCH  17  16
ENDBRANCH  19  18
BRANCH  27  28
ATOM     28  O   UNL     1      56.981  14.201  20.047  0.00  0.00    -0.567 OA
ATOM     29  H   UNL     1      57.488  14.848  19.537  0.00  0.00    +0.385 HD
ENDBRANCH  27  28
BRANCH  30  31
ATOM     31  O   UNL     1      55.346  14.790  22.238  0.00  0.00    -0.555 OA
ATOM     32  H   UNL     1      55.624  15.668  21.938  0.00  0.00    +0.385 HD
ENDBRANCH  30  31
BRANCH  37  38
ATOM     38  O   UNL     1      52.746  19.696  18.057  0.00  0.00    -0.165 OA
BRANCH  38  39
ATOM     39  O   UNL     1      52.277  20.595  16.993  0.00  0.00    -0.241 OA
ATOM     40  C   UNL     1      52.276  20.004  15.691  0.00  0.00    +0.234 C 
ENDBRANCH  38  39
ENDBRANCH  37  38
TORSDOF 13
ENDMDL
MODEL 6
REMARK VINA RESULT:      -3.7      2.167     11.690
REMARK  Name = ZINC95486304
REMARK  20 active torsions:
REMARK  status: ('A' for Active; 'I' for Inactive)
REMARK    1  A    between atoms: C1_1  and  C2_2
REMARK    2  A    between atoms: C2_2  and  C35_45
REMARK    3  A    between atoms: C3_3  and  C4_4
REMARK    4  A    between atoms: C4_4  and  C5_5
REMARK    5  A    between atoms: C5_5  and  C6_6
REMARK    6  A    between atoms: C6_6  and  C34_44
REMARK    7  A    between atoms: C7_7  and  C8_8
REMARK    8  A    between atoms: C8_8  and  C9_9
REMARK    9  A    between atoms: C10_10  and  O7_43
REMARK   10  A    between atoms: C12_12  and  C15_16
REMARK   11  A    between atoms: C14_14  and  O1_15
REMARK   12  A    between atoms: C16_17  and  C17_18
REMARK   13  A    between atoms: C21_22  and  O2_24
REMARK   14  A    between atoms: O2_24  and  O3_25
REMARK   15  A    between atoms: O3_25  and  C23_26
REMARK   16  A    between atoms: C24_28  and  C33_42
REMARK   17  A    between atoms: C26_30  and  O6_41
REMARK   18  A    between atoms: C27_32  and  O5_40
REMARK   19  A    between atoms: C28_34  and  C31_38
REMARK   20  A    between atoms: C28_34  and  C32_39
REMARK                            x       y       z     vdW  Elec       q    Type
REMARK                         _______ _______ _______ _____ _____    ______ ____
ROOT
ATOM     19  C   UNL     1      47.557  16.899  19.354  0.00  0.00    -0.093 A 
ATOM     20  C   UNL     1      46.199  17.063  19.634  0.00  0.00    +0.090 A 
ATOM     21  C   UNL     1      45.610  18.308  19.521  0.00  0.00    -0.165 A 
ATOM     22  C   UNL     1      46.362  19.401  19.128  0.00  0.00    +0.167 A 
ATOM     23  O   UNL     1      45.823  20.642  19.003  0.00  0.00    -0.293 OA
ATOM     24  C   UNL     1      44.566  20.888  19.667  0.00  0.00    +0.132 C 
ATOM     25  C   UNL     1      44.832  20.944  21.171  0.00  0.00    +0.038 C 
ATOM     26  C   UNL     1      44.038  22.236  19.174  0.00  0.00    +0.032 C 
ATOM     27  C   UNL     1      42.629  22.475  19.715  0.00  0.00    +0.150 C 
ATOM     30  C   UNL     1      41.695  21.392  19.183  0.00  0.00    +0.189 C 
ATOM     33  C   UNL     1      42.162  19.999  19.605  0.00  0.00    -0.037 C 
ATOM     34  C   UNL     1      41.312  18.981  18.811  0.00  0.00    +0.043 C 
ATOM     35  C   UNL     1      41.853  19.789  21.088  0.00  0.00    +0.041 C 
ATOM     36  C   UNL     1      43.621  19.764  19.267  0.00  0.00    -0.007 C 
ATOM     37  C   UNL     1      47.722  19.242  18.846  0.00  0.00    +0.031 A 
ATOM     41  C   UNL     1      44.138  18.443  19.840  0.00  0.00    +0.102 C 
ATOM     42  C   UNL     1      48.319  18.003  18.958  0.00  0.00    +0.085 A 
ENDROOT
BRANCH  19  18
ATOM     17  C   UNL     1      49.516  15.468  19.614  0.00  0.00    +0.011 C 
ATOM     18  C   UNL     1      48.184  15.572  19.474  0.00  0.00    +0.037 C 
BRANCH  17  16
ATOM     11  C   UNL     1      51.322  11.636  19.964  0.00  0.00    -0.126 A 
ATOM     12  C   UNL     1      51.305  12.496  21.054  0.00  0.00    +0.128 A 
ATOM     15  C   UNL     1      50.718  13.745  20.945  0.00  0.00    -0.006 A 
ATOM     16  C   UNL     1      50.142  14.139  19.735  0.00  0.00    -0.025 A 
ATOM     43  C   UNL     1      50.163  13.272  18.640  0.00  0.00    -0.013 A 
ATOM     44  C   UNL     1      50.757  12.026  18.758  0.00  0.00    +0.125 A 
BRANCH  12  13
ATOM     13  O   UNL     1      51.865  12.109  22.231  0.00  0.00    -0.491 OA
ATOM     14  H   UNL     1      51.772  11.165  22.419  0.00  0.00    +0.390 HD
ENDBRANCH  12  13
BRANCH  44  45
ATOM     45  O   UNL     1      50.782  11.183  17.692  0.00  0.00    -0.492 OA
ATOM     46  H   UNL     1      51.169  10.318  17.884  0.00  0.00    +0.391 HD
ENDBRANCH  44  45
BRANCH  11  10
ATOM     10  C   UNL     1      51.962  10.277  20.088  0.00  0.00    +0.120 C 
BRANCH  10   9
ATOM      7  C   UNL     1      54.349  10.697  19.795  0.00  0.00    -0.126 C 
ATOM      8  C   UNL     1      54.096  10.762  18.311  0.00  0.00    +0.075 C 
ATOM      9  C   UNL     1      53.365  10.430  20.617  0.00  0.00    -0.042 C 
BRANCH   7   6
ATOM      6  C   UNL     1      55.736  10.940  20.334  0.00  0.00    +0.060 C 
BRANCH   6   5
ATOM      5  C   UNL     1      56.160  12.377  20.020  0.00  0.00    +0.053 C 
BRANCH   5   4
ATOM      1  C   UNL     1      56.329  15.081  19.250  0.00  0.00    +0.071 C 
ATOM      2  C   UNL     1      55.089  14.569  19.933  0.00  0.00    -0.132 C 
ATOM      3  C   UNL     1      53.938  15.503  20.205  0.00  0.00    +0.071 C 
ATOM      4  C   UNL     1      55.009  13.312  20.292  0.00  0.00    -0.061 C 
ENDBRANCH   5   4
ENDBRANCH   6   5
ENDBRANCH   7   6
ENDBRANCH  10   9
ENDBRANCH  11  10
ENDBRANCH  17  16
ENDBRANCH  19  18
BRANCH  27  28
ATOM     28  O   UNL     1      42.168  23.756  19.266  0.00  0.00    -0.567 OA
ATOM     29  H   UNL     1      42.858  24.306  18.871  0.00  0.00    +0.385 HD
ENDBRANCH  27  28
BRANCH  30  31
ATOM     31  O   UNL     1      41.643  21.461  17.755  0.00  0.00    -0.555 OA
ATOM     32  H   UNL     1      40.946  22.039  17.414  0.00  0.00    +0.385 HD
ENDBRANCH  30  31
BRANCH  37  38
ATOM     38  O   UNL     1      48.462  20.316  18.460  0.00  0.00    -0.165 OA
BRANCH  38  39
ATOM     39  O   UNL     1      49.879  20.234  18.840  0.00  0.00    -0.241 OA
ATOM     40  C   UNL     1      50.746  21.029  18.028  0.00  0.00    +0.234 C 
ENDBRANCH  38  39
ENDBRANCH  37  38
TORSDOF 13
ENDMDL
MODEL 7
REMARK VINA RESULT:      -3.4      1.823      3.068
REMARK  Name = ZINC95486304
REMARK  20 active torsions:
REMARK  status: ('A' for Active; 'I' for Inactive)
REMARK    1  A    between atoms: C1_1  and  C2_2
REMARK    2  A    between atoms: C2_2  and  C35_45
REMARK    3  A    between atoms: C3_3  and  C4_4
REMARK    4  A    between atoms: C4_4  and  C5_5
REMARK    5  A    between atoms: C5_5  and  C6_6
REMARK    6  A    between atoms: C6_6  and  C34_44
REMARK    7  A    between atoms: C7_7  and  C8_8
REMARK    8  A    between atoms: C8_8  and  C9_9
REMARK    9  A    between atoms: C10_10  and  O7_43
REMARK   10  A    between atoms: C12_12  and  C15_16
REMARK   11  A    between atoms: C14_14  and  O1_15
REMARK   12  A    between atoms: C16_17  and  C17_18
REMARK   13  A    between atoms: C21_22  and  O2_24
REMARK   14  A    between atoms: O2_24  and  O3_25
REMARK   15  A    between atoms: O3_25  and  C23_26
REMARK   16  A    between atoms: C24_28  and  C33_42
REMARK   17  A    between atoms: C26_30  and  O6_41
REMARK   18  A    between atoms: C27_32  and  O5_40
REMARK   19  A    between atoms: C28_34  and  C31_38
REMARK   20  A    between atoms: C28_34  and  C32_39
REMARK                            x       y       z     vdW  Elec       q    Type
REMARK                         _______ _______ _______ _____ _____    ______ ____
ROOT
ATOM     19  C   UNL     1      50.274  17.079  19.143  0.00  0.00    -0.093 A 
ATOM     20  C   UNL     1      51.517  17.134  19.776  0.00  0.00    +0.090 A 
ATOM     21  C   UNL     1      52.343  16.026  19.786  0.00  0.00    -0.165 A 
ATOM     22  C   UNL     1      51.943  14.854  19.169  0.00  0.00    +0.167 A 
ATOM     23  O   UNL     1      52.723  13.742  19.154  0.00  0.00    -0.293 OA
ATOM     24  C   UNL     1      53.787  13.666  20.125  0.00  0.00    +0.132 C 
ATOM     25  C   UNL     1      53.155  13.441  21.499  0.00  0.00    +0.038 C 
ATOM     26  C   UNL     1      54.673  12.478  19.751  0.00  0.00    +0.032 C 
ATOM     27  C   UNL     1      55.911  12.447  20.644  0.00  0.00    +0.150 C 
ATOM     30  C   UNL     1      56.727  13.717  20.420  0.00  0.00    +0.189 C 
ATOM     33  C   UNL     1      55.908  14.966  20.746  0.00  0.00    -0.037 C 
ATOM     34  C   UNL     1      56.724  16.180  20.244  0.00  0.00    +0.043 C 
ATOM     35  C   UNL     1      55.775  15.104  22.262  0.00  0.00    +0.041 C 
ATOM     36  C   UNL     1      54.570  14.969  20.033  0.00  0.00    -0.007 C 
ATOM     37  C   UNL     1      50.698  14.794  18.534  0.00  0.00    +0.031 A 
ATOM     41  C   UNL     1      53.679  16.126  20.487  0.00  0.00    +0.102 C 
ATOM     42  C   UNL     1      49.867  15.895  18.521  0.00  0.00    +0.085 A 
ENDROOT
BRANCH  19  18
ATOM     17  C   UNL     1      49.080  18.876  20.285  0.00  0.00    +0.011 C 
ATOM     18  C   UNL     1      49.395  18.261  19.133  0.00  0.00    +0.037 C 
BRANCH  17  16
ATOM     11  C   UNL     1      46.544  22.286  20.252  0.00  0.00    -0.126 A 
ATOM     12  C   UNL     1      47.260  21.967  21.397  0.00  0.00    +0.128 A 
ATOM     15  C   UNL     1      48.088  20.858  21.413  0.00  0.00    -0.006 A 
ATOM     16  C   UNL     1      48.201  20.058  20.273  0.00  0.00    -0.025 A 
ATOM     43  C   UNL     1      47.477  20.382  19.123  0.00  0.00    -0.013 A 
ATOM     44  C   UNL     1      46.649  21.491  19.119  0.00  0.00    +0.125 A 
BRANCH  12  13
ATOM     13  O   UNL     1      47.150  22.748  22.505  0.00  0.00    -0.491 OA
ATOM     14  H   UNL     1      47.750  22.499  23.222  0.00  0.00    +0.390 HD
ENDBRANCH  12  13
BRANCH  44  45
ATOM     45  O   UNL     1      45.941  21.805  18.002  0.00  0.00    -0.492 OA
ATOM     46  H   UNL     1      45.101  21.332  17.923  0.00  0.00    +0.391 HD
ENDBRANCH  44  45
BRANCH  11  10
ATOM     10  C   UNL     1      45.645  23.496  20.239  0.00  0.00    +0.120 C 
BRANCH  10   9
ATOM      7  C   UNL     1      43.431  22.501  19.980  0.00  0.00    -0.126 C 
ATOM      8  C   UNL     1      43.587  21.936  21.368  0.00  0.00    +0.075 C 
ATOM      9  C   UNL     1      44.405  23.191  19.439  0.00  0.00    -0.042 C 
BRANCH   7   6
ATOM      6  C   UNL     1      42.154  22.274  19.213  0.00  0.00    +0.060 C 
BRANCH   6   5
ATOM      5  C   UNL     1      41.848  20.775  19.165  0.00  0.00    +0.053 C 
BRANCH   5   4
ATOM      1  C   UNL     1      42.376  18.570  20.836  0.00  0.00    +0.071 C 
ATOM      2  C   UNL     1      43.379  18.979  19.789  0.00  0.00    -0.132 C 
ATOM      3  C   UNL     1      44.665  18.209  19.635  0.00  0.00    +0.071 C 
ATOM      4  C   UNL     1      43.134  20.004  19.011  0.00  0.00    -0.061 C 
ENDBRANCH   5   4
ENDBRANCH   6   5
ENDBRANCH   7   6
ENDBRANCH  10   9
ENDBRANCH  11  10
ENDBRANCH  17  16
ENDBRANCH  19  18
BRANCH  27  28
ATOM     28  O   UNL     1      56.710  11.308  20.295  0.00  0.00    -0.567 OA
ATOM     29  H   UNL     1      56.855  11.206  19.345  0.00  0.00    +0.385 HD
ENDBRANCH  27  28
BRANCH  30  31
ATOM     31  O   UNL     1      57.160  13.777  19.058  0.00  0.00    -0.555 OA
ATOM     32  H   UNL     1      57.835  14.449  18.890  0.00  0.00    +0.385 HD
ENDBRANCH  30  31
BRANCH  37  38
ATOM     38  O   UNL     1      50.304  13.642  17.928  0.00  0.00    -0.165 OA
BRANCH  38  39
ATOM     39  O   UNL     1      49.257  13.828  16.914  0.00  0.00    -0.241 OA
ATOM     40  C   UNL     1      49.499  13.127  15.692  0.00  0.00    +0.234 C 
ENDBRANCH  38  39
ENDBRANCH  37  38
TORSDOF 13
ENDMDL
MODEL 8
REMARK VINA RESULT:      -3.4      1.979      3.169
REMARK  Name = ZINC95486304
REMARK  20 active torsions:
REMARK  status: ('A' for Active; 'I' for Inactive)
REMARK    1  A    between atoms: C1_1  and  C2_2
REMARK    2  A    between atoms: C2_2  and  C35_45
REMARK    3  A    between atoms: C3_3  and  C4_4
REMARK    4  A    between atoms: C4_4  and  C5_5
REMARK    5  A    between atoms: C5_5  and  C6_6
REMARK    6  A    between atoms: C6_6  and  C34_44
REMARK    7  A    between atoms: C7_7  and  C8_8
REMARK    8  A    between atoms: C8_8  and  C9_9
REMARK    9  A    between atoms: C10_10  and  O7_43
REMARK   10  A    between atoms: C12_12  and  C15_16
REMARK   11  A    between atoms: C14_14  and  O1_15
REMARK   12  A    between atoms: C16_17  and  C17_18
REMARK   13  A    between atoms: C21_22  and  O2_24
REMARK   14  A    between atoms: O2_24  and  O3_25
REMARK   15  A    between atoms: O3_25  and  C23_26
REMARK   16  A    between atoms: C24_28  and  C33_42
REMARK   17  A    between atoms: C26_30  and  O6_41
REMARK   18  A    between atoms: C27_32  and  O5_40
REMARK   19  A    between atoms: C28_34  and  C31_38
REMARK   20  A    between atoms: C28_34  and  C32_39
REMARK                            x       y       z     vdW  Elec       q    Type
REMARK                         _______ _______ _______ _____ _____    ______ ____
ROOT
ATOM     19  C   UNL     1      49.516  16.532  19.951  0.00  0.00    -0.093 A 
ATOM     20  C   UNL     1      49.628  15.177  20.266  0.00  0.00    +0.090 A 
ATOM     21  C   UNL     1      50.860  14.552  20.221  0.00  0.00    -0.165 A 
ATOM     22  C   UNL     1      51.991  15.265  19.866  0.00  0.00    +0.167 A 
ATOM     23  O   UNL     1      53.221  14.690  19.811  0.00  0.00    -0.293 OA
ATOM     24  C   UNL     1      53.276  13.251  19.733  0.00  0.00    +0.132 C 
ATOM     25  C   UNL     1      52.807  12.836  18.339  0.00  0.00    +0.038 C 
ATOM     26  C   UNL     1      54.731  12.831  19.946  0.00  0.00    +0.032 C 
ATOM     27  C   UNL     1      54.827  11.310  20.042  0.00  0.00    +0.150 C 
ATOM     30  C   UNL     1      54.028  10.829  21.249  0.00  0.00    +0.189 C 
ATOM     33  C   UNL     1      52.557  11.230  21.136  0.00  0.00    -0.037 C 
ATOM     34  C   UNL     1      51.904  10.929  22.505  0.00  0.00    +0.043 C 
ATOM     35  C   UNL     1      51.868  10.341  20.101  0.00  0.00    +0.041 C 
ATOM     36  C   UNL     1      52.393  12.708  20.848  0.00  0.00    -0.007 C 
ATOM     37  C   UNL     1      51.883  16.623  19.549  0.00  0.00    +0.031 A 
ATOM     41  C   UNL     1      50.936  13.081  20.564  0.00  0.00    +0.102 C 
ATOM     42  C   UNL     1      50.657  17.255  19.589  0.00  0.00    +0.085 A 
ENDROOT
BRANCH  19  18
ATOM     17  C   UNL     1      47.080  16.465  20.075  0.00  0.00    +0.011 C 
ATOM     18  C   UNL     1      48.203  17.198  19.998  0.00  0.00    +0.037 C 
BRANCH  17  16
ATOM     11  C   UNL     1      43.292  18.389  20.213  0.00  0.00    -0.126 A 
ATOM     12  C   UNL     1      43.650  17.493  21.211  0.00  0.00    +0.128 A 
ATOM     15  C   UNL     1      44.883  16.864  21.170  0.00  0.00    -0.006 A 
ATOM     16  C   UNL     1      45.766  17.133  20.122  0.00  0.00    -0.025 A 
ATOM     43  C   UNL     1      45.401  18.033  19.119  0.00  0.00    -0.013 A 
ATOM     44  C   UNL     1      44.164  18.654  19.166  0.00  0.00    +0.125 A 
BRANCH  12  13
ATOM     13  O   UNL     1      42.789  17.235  22.230  0.00  0.00    -0.491 OA
ATOM     14  H   UNL     1      41.916  16.934  21.941  0.00  0.00    +0.390 HD
ENDBRANCH  12  13
BRANCH  44  45
ATOM     45  O   UNL     1      43.806  19.527  18.189  0.00  0.00    -0.492 OA
ATOM     46  H   UNL     1      44.288  19.409  17.359  0.00  0.00    +0.391 HD
ENDBRANCH  44  45
BRANCH  11  10
ATOM     10  C   UNL     1      41.949  19.072  20.262  0.00  0.00    +0.120 C 
BRANCH  10   9
ATOM      7  C   UNL     1      41.439  21.051  18.927  0.00  0.00    -0.126 C 
ATOM      8  C   UNL     1      40.565  20.174  18.068  0.00  0.00    +0.075 C 
ATOM      9  C   UNL     1      42.116  20.530  19.921  0.00  0.00    -0.042 C 
BRANCH   7   6
ATOM      6  C   UNL     1      41.535  22.528  18.643  0.00  0.00    +0.060 C 
BRANCH   6   5
ATOM      5  C   UNL     1      42.641  23.142  19.505  0.00  0.00    +0.053 C 
BRANCH   5   4
ATOM      1  C   UNL     1      44.686  23.058  21.440  0.00  0.00    +0.071 C 
ATOM      2  C   UNL     1      44.906  22.441  20.083  0.00  0.00    -0.132 C 
ATOM      3  C   UNL     1      46.221  21.778  19.762  0.00  0.00    +0.071 C 
ATOM      4  C   UNL     1      43.956  22.480  19.183  0.00  0.00    -0.061 C 
ENDBRANCH   5   4
ENDBRANCH   6   5
ENDBRANCH   7   6
ENDBRANCH  10   9
ENDBRANCH  11  10
ENDBRANCH  17  16
ENDBRANCH  19  18
BRANCH  27  28
ATOM     28  O   UNL     1      56.202  10.939  20.211  0.00  0.00    -0.567 OA
ATOM     29  H   UNL     1      56.729  11.593  20.689  0.00  0.00    +0.385 HD
ENDBRANCH  27  28
BRANCH  30  31
ATOM     31  O   UNL     1      54.580  11.387  22.445  0.00  0.00    -0.555 OA
ATOM     32  H   UNL     1      54.132  11.104  23.255  0.00  0.00    +0.385 HD
ENDBRANCH  30  31
BRANCH  37  38
ATOM     38  O   UNL     1      52.994  17.325  19.199  0.00  0.00    -0.165 OA
BRANCH  38  39
ATOM     39  O   UNL     1      52.740  18.408  18.239  0.00  0.00    -0.241 OA
ATOM     40  C   UNL     1      52.944  19.718  18.773  0.00  0.00    +0.234 C 
ENDBRANCH  38  39
ENDBRANCH  37  38
TORSDOF 13
ENDMDL
MODEL 9
REMARK VINA RESULT:      -3.2      2.320     11.780
REMARK  Name = ZINC95486304
REMARK  20 active torsions:
REMARK  status: ('A' for Active; 'I' for Inactive)
REMARK    1  A    between atoms: C1_1  and  C2_2
REMARK    2  A    between atoms: C2_2  and  C35_45
REMARK    3  A    between atoms: C3_3  and  C4_4
REMARK    4  A    between atoms: C4_4  and  C5_5
REMARK    5  A    between atoms: C5_5  and  C6_6
REMARK    6  A    between atoms: C6_6  and  C34_44
REMARK    7  A    between atoms: C7_7  and  C8_8
REMARK    8  A    between atoms: C8_8  and  C9_9
REMARK    9  A    between atoms: C10_10  and  O7_43
REMARK   10  A    between atoms: C12_12  and  C15_16
REMARK   11  A    between atoms: C14_14  and  O1_15
REMARK   12  A    between atoms: C16_17  and  C17_18
REMARK   13  A    between atoms: C21_22  and  O2_24
REMARK   14  A    between atoms: O2_24  and  O3_25
REMARK   15  A    between atoms: O3_25  and  C23_26
REMARK   16  A    between atoms: C24_28  and  C33_42
REMARK   17  A    between atoms: C26_30  and  O6_41
REMARK   18  A    between atoms: C27_32  and  O5_40
REMARK   19  A    between atoms: C28_34  and  C31_38
REMARK   20  A    between atoms: C28_34  and  C32_39
REMARK                            x       y       z     vdW  Elec       q    Type
REMARK                         _______ _______ _______ _____ _____    ______ ____
ROOT
ATOM     19  C   UNL     1      48.226  17.161  21.055  0.00  0.00    -0.093 A 
ATOM     20  C   UNL     1      48.091  18.494  20.665  0.00  0.00    +0.090 A 
ATOM     21  C   UNL     1      46.837  19.042  20.477  0.00  0.00    -0.165 A 
ATOM     22  C   UNL     1      45.704  18.273  20.676  0.00  0.00    +0.167 A 
ATOM     23  O   UNL     1      44.452  18.771  20.504  0.00  0.00    -0.293 OA
ATOM     24  C   UNL     1      44.321  19.980  19.729  0.00  0.00    +0.132 C 
ATOM     25  C   UNL     1      44.593  19.633  18.266  0.00  0.00    +0.038 C 
ATOM     26  C   UNL     1      42.887  20.484  19.894  0.00  0.00    +0.032 C 
ATOM     27  C   UNL     1      42.733  21.851  19.231  0.00  0.00    +0.150 C 
ATOM     30  C   UNL     1      43.654  22.852  19.922  0.00  0.00    +0.189 C 
ATOM     33  C   UNL     1      45.116  22.415  19.832  0.00  0.00    -0.037 C 
ATOM     34  C   UNL     1      45.921  23.345  20.770  0.00  0.00    +0.043 C 
ATOM     35  C   UNL     1      45.629  22.652  18.411  0.00  0.00    +0.041 C 
ATOM     36  C   UNL     1      45.311  20.987  20.299  0.00  0.00    -0.007 C 
ATOM     37  C   UNL     1      45.833  16.936  21.067  0.00  0.00    +0.031 A 
ATOM     41  C   UNL     1      46.736  20.489  20.049  0.00  0.00    +0.102 C 
ATOM     42  C   UNL     1      47.082  16.381  21.254  0.00  0.00    +0.085 A 
ENDROOT
BRANCH  19  18
ATOM     17  C   UNL     1      50.385  16.405  20.206  0.00  0.00    +0.011 C 
ATOM     18  C   UNL     1      49.563  16.578  21.254  0.00  0.00    +0.037 C 
BRANCH  17  16
ATOM     11  C   UNL     1      54.246  14.724  20.784  0.00  0.00    -0.126 A 
ATOM     12  C   UNL     1      54.054  15.700  19.816  0.00  0.00    +0.128 A 
ATOM     15  C   UNL     1      52.798  16.251  19.624  0.00  0.00    -0.006 A 
ATOM     16  C   UNL     1      51.724  15.822  20.407  0.00  0.00    -0.025 A 
ATOM     43  C   UNL     1      51.921  14.839  21.379  0.00  0.00    -0.013 A 
ATOM     44  C   UNL     1      53.180  14.291  21.560  0.00  0.00    +0.125 A 
BRANCH  12  13
ATOM     13  O   UNL     1      55.101  16.117  19.057  0.00  0.00    -0.491 OA
ATOM     14  H   UNL     1      55.965  15.994  19.476  0.00  0.00    +0.390 HD
ENDBRANCH  12  13
BRANCH  44  45
ATOM     45  O   UNL     1      53.372  13.331  22.503  0.00  0.00    -0.492 OA
ATOM     46  H   UNL     1      53.227  13.635  23.409  0.00  0.00    +0.391 HD
ENDBRANCH  44  45
BRANCH  11  10
ATOM     10  C   UNL     1      55.615  14.128  20.990  0.00  0.00    +0.120 C 
BRANCH  10   9
ATOM      7  C   UNL     1      55.751  11.692  20.926  0.00  0.00    -0.126 C 
ATOM      8  C   UNL     1      55.802  11.714  22.432  0.00  0.00    +0.075 C 
ATOM      9  C   UNL     1      55.706  12.816  20.255  0.00  0.00    -0.042 C 
BRANCH   7   6
ATOM      6  C   UNL     1      55.749  10.376  20.192  0.00  0.00    +0.060 C 
BRANCH   6   5
ATOM      5  C   UNL     1      54.497  10.281  19.317  0.00  0.00    +0.053 C 
BRANCH   5   4
ATOM      1  C   UNL     1      52.245  11.703  18.401  0.00  0.00    +0.071 C 
ATOM      2  C   UNL     1      52.222  11.048  19.758  0.00  0.00    -0.132 C 
ATOM      3  C   UNL     1      50.994  11.153  20.625  0.00  0.00    +0.071 C 
ATOM      4  C   UNL     1      53.269  10.386  20.184  0.00  0.00    -0.061 C 
ENDBRANCH   5   4
ENDBRANCH   6   5
ENDBRANCH   7   6
ENDBRANCH  10   9
ENDBRANCH  11  10
ENDBRANCH  17  16
ENDBRANCH  19  18
BRANCH  27  28
ATOM     28  O   UNL     1      41.375  22.288  19.372  0.00  0.00    -0.567 OA
ATOM     29  H   UNL     1      40.897  21.860  20.095  0.00  0.00    +0.385 HD
ENDBRANCH  27  28
BRANCH  30  31
ATOM     31  O   UNL     1      43.283  22.978  21.298  0.00  0.00    -0.555 OA
ATOM     32  H   UNL     1      42.513  22.447  21.548  0.00  0.00    +0.385 HD
ENDBRANCH  30  31
BRANCH  37  38
ATOM     38  O   UNL     1      44.720  16.179  21.261  0.00  0.00    -0.165 OA
BRANCH  38  39
ATOM     39  O   UNL     1      44.825  14.814  20.728  0.00  0.00    -0.241 OA
ATOM     40  C   UNL     1      45.725  13.973  21.454  0.00  0.00    +0.234 C 
ENDBRANCH  38  39
ENDBRANCH  37  38
TORSDOF 13
ENDMDL
