MODEL 1
REMARK VINA RESULT:      -5.8      0.000      0.000
REMARK  Name = ZINC95486067
REMARK  21 active torsions:
REMARK  status: ('A' for Active; 'I' for Inactive)
REMARK    1  A    between atoms: C1_1  and  C2_2
REMARK    2  A    between atoms: C2_2  and  C3_3
REMARK    3  A    between atoms: C2_2  and  C4_4
REMARK    4  A    between atoms: C5_5  and  O9_50
REMARK    5  A    between atoms: C9_9  and  O1_10
REMARK    6  A    between atoms: O1_10  and  C10_11
REMARK    7  A    between atoms: C11_13  and  O8_48
REMARK    8  A    between atoms: C19_23  and  O5_37
REMARK    9  A    between atoms: C20_25  and  C24_34
REMARK   10  A    between atoms: C21_27  and  O4_32
REMARK   11  A    between atoms: O4_32  and  C23_33
REMARK   12  A    between atoms: C24_34  and  C25_35
REMARK   13  A    between atoms: C24_34  and  C26_36
REMARK   14  A    between atoms: O5_37  and  C27_38
REMARK   15  A    between atoms: C29_41  and  O7_46
REMARK   16  A    between atoms: C30_42  and  C31_43
REMARK   17  A    between atoms: C31_43  and  C32_44
REMARK   18  A    between atoms: C31_43  and  C33_45
REMARK   19  A    between atoms: O7_46  and  C34_47
REMARK   20  A    between atoms: O8_48  and  C35_49
REMARK   21  A    between atoms: O9_50  and  C36_51
REMARK                            x       y       z     vdW  Elec       q    Type
REMARK                         _______ _______ _______ _____ _____    ______ ____
ROOT
ATOM      3  C   UNL     1      52.987  15.870  20.368  0.00  0.00    -0.102 A 
ATOM      4  C   UNL     1      52.182  16.960  20.666  0.00  0.00    +0.131 A 
ATOM      7  C   UNL     1      50.832  16.927  20.357  0.00  0.00    -0.049 A 
ATOM      8  C   UNL     1      50.277  15.810  19.750  0.00  0.00    -0.082 A 
ATOM      9  C   UNL     1      51.079  14.725  19.452  0.00  0.00    +0.070 A 
ATOM     10  O   UNL     1      50.566  13.618  18.838  0.00  0.00    -0.304 OA
ATOM     11  C   UNL     1      49.437  13.880  17.984  0.00  0.00    +0.327 C 
ATOM     14  C   UNL     1      48.345  14.493  18.858  0.00  0.00    -0.009 C 
ATOM     15  C   UNL     1      47.018  14.572  18.120  0.00  0.00    +0.116 C 
ATOM     16  C   UNL     1      46.635  13.121  17.817  0.00  0.00    +0.376 C 
ATOM     17  C   UNL     1      47.691  12.243  17.297  0.00  0.00    +0.027 C 
ATOM     20  O   UNL     1      45.507  12.730  18.001  0.00  0.00    -0.404 OA
ATOM     21  C   UNL     1      47.084  15.287  16.780  0.00  0.00    +0.031 C 
ATOM     22  C   UNL     1      47.096  16.807  16.921  0.00  0.00    +0.045 C 
ATOM     23  C   UNL     1      45.908  17.243  17.778  0.00  0.00    -0.036 C 
ATOM     24  C   UNL     1      45.963  18.754  18.012  0.00  0.00    +0.014 C 
ATOM     25  C   UNL     1      44.761  19.183  18.855  0.00  0.00    +0.161 C 
ATOM     28  C   UNL     1      44.762  18.434  20.187  0.00  0.00    +0.015 C 
ATOM     32  C   UNL     1      44.726  16.925  19.938  0.00  0.00    +0.182 C 
ATOM     35  C   UNL     1      45.967  16.524  19.128  0.00  0.00    +0.144 C 
ATOM     36  O   UNL     1      45.998  15.118  18.948  0.00  0.00    -0.343 OA
ATOM     37  C   UNL     1      48.972  12.603  17.355  0.00  0.00    -0.077 C 
ATOM     41  C   UNL     1      48.801  15.823  19.434  0.00  0.00    +0.121 C 
ATOM     42  C   UNL     1      52.436  14.753  19.766  0.00  0.00    +0.117 A 
ENDROOT
BRANCH   3   2
ATOM      1  C   UNL     1      54.721  14.998  21.912  0.00  0.00    +0.033 C 
ATOM      2  C   UNL     1      54.456  15.899  20.705  0.00  0.00    +0.039 C 
ATOM     45  C   UNL     1      55.265  15.398  19.506  0.00  0.00    +0.029 C 
ENDBRANCH   3   2
BRANCH  28  29
ATOM     29  C   UNL     1      43.534  18.842  21.003  0.00  0.00    -0.005 C 
ATOM     30  C   UNL     1      42.425  19.308  20.059  0.00  0.00    +0.024 C 
ATOM     31  C   UNL     1      43.907  19.981  21.954  0.00  0.00    +0.008 C 
ENDBRANCH  28  29
BRANCH  37  38
ATOM     38  C   UNL     1      50.001  11.682  16.751  0.00  0.00    +0.030 C 
ATOM     39  C   UNL     1      49.722  11.515  15.257  0.00  0.00    +0.045 C 
ATOM     40  C   UNL     1      49.930  10.317  17.440  0.00  0.00    +0.037 C 
ENDBRANCH  37  38
BRANCH   4   5
ATOM      5  O   UNL     1      52.719  18.060  21.258  0.00  0.00    -0.303 OA
ATOM      6  C   UNL     1      52.080  19.312  21.001  0.00  0.00    +0.235 C 
ENDBRANCH   4   5
BRANCH  11  12
ATOM     12  O   UNL     1      49.861  14.795  16.977  0.00  0.00    -0.365 OA
ATOM     13  C   UNL     1      51.131  14.481  16.403  0.00  0.00    +0.221 C 
ENDBRANCH  11  12
BRANCH  17  18
ATOM     18  O   UNL     1      47.359  11.044  16.744  0.00  0.00    -0.308 OA
ATOM     19  C   UNL     1      46.402  11.062  15.683  0.00  0.00    +0.237 C 
ENDBRANCH  17  18
BRANCH  25  26
ATOM     26  O   UNL     1      44.833  20.589  19.102  0.00  0.00    -0.377 OA
ATOM     27  C   UNL     1      46.101  21.171  18.790  0.00  0.00    +0.200 C 
ENDBRANCH  25  26
BRANCH  32  33
ATOM     33  O   UNL     1      44.729  16.227  21.184  0.00  0.00    -0.363 OA
ATOM     34  C   UNL     1      45.911  16.433  21.962  0.00  0.00    +0.206 C 
ENDBRANCH  32  33
BRANCH  42  43
ATOM     43  O   UNL     1      53.222  13.681  19.476  0.00  0.00    -0.321 OA
ATOM     44  C   UNL     1      53.002  12.492  20.238  0.00  0.00    +0.226 C 
ENDBRANCH  42  43
TORSDOF 9
ENDMDL
MODEL 2
REMARK VINA RESULT:      -4.9      2.252      3.430
REMARK  Name = ZINC95486067
REMARK  21 active torsions:
REMARK  status: ('A' for Active; 'I' for Inactive)
REMARK    1  A    between atoms: C1_1  and  C2_2
REMARK    2  A    between atoms: C2_2  and  C3_3
REMARK    3  A    between atoms: C2_2  and  C4_4
REMARK    4  A    between atoms: C5_5  and  O9_50
REMARK    5  A    between atoms: C9_9  and  O1_10
REMARK    6  A    between atoms: O1_10  and  C10_11
REMARK    7  A    between atoms: C11_13  and  O8_48
REMARK    8  A    between atoms: C19_23  and  O5_37
REMARK    9  A    between atoms: C20_25  and  C24_34
REMARK   10  A    between atoms: C21_27  and  O4_32
REMARK   11  A    between atoms: O4_32  and  C23_33
REMARK   12  A    between atoms: C24_34  and  C25_35
REMARK   13  A    between atoms: C24_34  and  C26_36
REMARK   14  A    between atoms: O5_37  and  C27_38
REMARK   15  A    between atoms: C29_41  and  O7_46
REMARK   16  A    between atoms: C30_42  and  C31_43
REMARK   17  A    between atoms: C31_43  and  C32_44
REMARK   18  A    between atoms: C31_43  and  C33_45
REMARK   19  A    between atoms: O7_46  and  C34_47
REMARK   20  A    between atoms: O8_48  and  C35_49
REMARK   21  A    between atoms: O9_50  and  C36_51
REMARK                            x       y       z     vdW  Elec       q    Type
REMARK                         _______ _______ _______ _____ _____    ______ ____
ROOT
ATOM      3  C   UNL     1      54.039  12.567  19.794  0.00  0.00    -0.102 A 
ATOM      4  C   UNL     1      54.119  13.863  20.281  0.00  0.00    +0.131 A 
ATOM      7  C   UNL     1      53.042  14.723  20.138  0.00  0.00    -0.049 A 
ATOM      8  C   UNL     1      51.880  14.297  19.509  0.00  0.00    -0.082 A 
ATOM      9  C   UNL     1      51.802  13.006  19.023  0.00  0.00    +0.070 A 
ATOM     10  O   UNL     1      50.680  12.562  18.383  0.00  0.00    -0.304 OA
ATOM     11  C   UNL     1      49.938  13.589  17.700  0.00  0.00    +0.327 C 
ATOM     14  C   UNL     1      49.517  14.614  18.751  0.00  0.00    -0.009 C 
ATOM     15  C   UNL     1      48.511  15.607  18.191  0.00  0.00    +0.116 C 
ATOM     16  C   UNL     1      47.284  14.774  17.813  0.00  0.00    +0.376 C 
ATOM     17  C   UNL     1      47.524  13.516  17.094  0.00  0.00    +0.027 C 
ATOM     20  O   UNL     1      46.172  15.149  18.100  0.00  0.00    -0.404 OA
ATOM     21  C   UNL     1      48.961  16.310  16.919  0.00  0.00    +0.031 C 
ATOM     22  C   UNL     1      49.938  17.451  17.189  0.00  0.00    +0.045 C 
ATOM     23  C   UNL     1      49.330  18.403  18.219  0.00  0.00    -0.036 C 
ATOM     24  C   UNL     1      50.339  19.497  18.574  0.00  0.00    +0.014 C 
ATOM     25  C   UNL     1      49.715  20.453  19.592  0.00  0.00    +0.161 C 
ATOM     28  C   UNL     1      49.297  19.684  20.845  0.00  0.00    +0.015 C 
ATOM     32  C   UNL     1      48.303  18.582  20.472  0.00  0.00    +0.182 C 
ATOM     35  C   UNL     1      48.976  17.618  19.485  0.00  0.00    +0.144 C 
ATOM     36  O   UNL     1      48.102  16.543  19.182  0.00  0.00    -0.343 OA
ATOM     37  C   UNL     1      48.745  12.987  17.024  0.00  0.00    -0.077 C 
ATOM     41  C   UNL     1      50.735  15.271  19.380  0.00  0.00    +0.121 C 
ATOM     42  C   UNL     1      52.881  12.137  19.169  0.00  0.00    +0.117 A 
ENDROOT
BRANCH   3   2
ATOM      1  C   UNL     1      56.482  12.312  19.456  0.00  0.00    +0.033 C 
ATOM      2  C   UNL     1      55.207  11.626  19.949  0.00  0.00    +0.039 C 
ATOM     45  C   UNL     1      55.368  11.250  21.423  0.00  0.00    +0.029 C 
ENDBRANCH   3   2
BRANCH  28  29
ATOM     29  C   UNL     1      48.638  20.644  21.837  0.00  0.00    -0.005 C 
ATOM     30  C   UNL     1      47.650  21.547  21.096  0.00  0.00    +0.024 C 
ATOM     31  C   UNL     1      49.713  21.504  22.505  0.00  0.00    +0.008 C 
ENDBRANCH  28  29
BRANCH  37  38
ATOM     38  C   UNL     1      48.933  11.725  16.222  0.00  0.00    +0.030 C 
ATOM     39  C   UNL     1      48.157  11.836  14.909  0.00  0.00    +0.045 C 
ATOM     40  C   UNL     1      48.414  10.530  17.024  0.00  0.00    +0.037 C 
ENDBRANCH  37  38
BRANCH   4   5
ATOM      5  O   UNL     1      55.254  14.289  20.895  0.00  0.00    -0.303 OA
ATOM      6  C   UNL     1      55.458  15.701  20.974  0.00  0.00    +0.235 C 
ENDBRANCH   4   5
BRANCH  11  12
ATOM     12  O   UNL     1      50.804  14.175  16.731  0.00  0.00    -0.365 OA
ATOM     13  C   UNL     1      51.366  13.237  15.812  0.00  0.00    +0.221 C 
ENDBRANCH  11  12
BRANCH  17  18
ATOM     18  O   UNL     1      46.486  12.880  16.484  0.00  0.00    -0.308 OA
ATOM     19  C   UNL     1      45.439  12.394  17.325  0.00  0.00    +0.237 C 
ENDBRANCH  17  18
BRANCH  25  26
ATOM     26  O   UNL     1      50.672  21.455  19.949  0.00  0.00    -0.377 OA
ATOM     27  C   UNL     1      51.989  21.204  19.455  0.00  0.00    +0.200 C 
ENDBRANCH  25  26
BRANCH  32  33
ATOM     33  O   UNL     1      47.914  17.863  21.644  0.00  0.00    -0.363 OA
ATOM     34  C   UNL     1      46.501  17.816  21.853  0.00  0.00    +0.206 C 
ENDBRANCH  32  33
BRANCH  42  43
ATOM     43  O   UNL     1      52.799  10.865  18.694  0.00  0.00    -0.321 OA
ATOM     44  C   UNL     1      53.317  10.628  17.383  0.00  0.00    +0.226 C 
ENDBRANCH  42  43
TORSDOF 9
ENDMDL
MODEL 3
REMARK VINA RESULT:      -4.8      2.214      6.236
REMARK  Name = ZINC95486067
REMARK  21 active torsions:
REMARK  status: ('A' for Active; 'I' for Inactive)
REMARK    1  A    between atoms: C1_1  and  C2_2
REMARK    2  A    between atoms: C2_2  and  C3_3
REMARK    3  A    between atoms: C2_2  and  C4_4
REMARK    4  A    between atoms: C5_5  and  O9_50
REMARK    5  A    between atoms: C9_9  and  O1_10
REMARK    6  A    between atoms: O1_10  and  C10_11
REMARK    7  A    between atoms: C11_13  and  O8_48
REMARK    8  A    between atoms: C19_23  and  O5_37
REMARK    9  A    between atoms: C20_25  and  C24_34
REMARK   10  A    between atoms: C21_27  and  O4_32
REMARK   11  A    between atoms: O4_32  and  C23_33
REMARK   12  A    between atoms: C24_34  and  C25_35
REMARK   13  A    between atoms: C24_34  and  C26_36
REMARK   14  A    between atoms: O5_37  and  C27_38
REMARK   15  A    between atoms: C29_41  and  O7_46
REMARK   16  A    between atoms: C30_42  and  C31_43
REMARK   17  A    between atoms: C31_43  and  C32_44
REMARK   18  A    between atoms: C31_43  and  C33_45
REMARK   19  A    between atoms: O7_46  and  C34_47
REMARK   20  A    between atoms: O8_48  and  C35_49
REMARK   21  A    between atoms: O9_50  and  C36_51
REMARK                            x       y       z     vdW  Elec       q    Type
REMARK                         _______ _______ _______ _____ _____    ______ ____
ROOT
ATOM      3  C   UNL     1      50.765  12.209  15.643  0.00  0.00    -0.102 A 
ATOM      4  C   UNL     1      49.684  13.078  15.658  0.00  0.00    +0.131 A 
ATOM      7  C   UNL     1      49.630  14.098  16.594  0.00  0.00    -0.049 A 
ATOM      8  C   UNL     1      50.652  14.258  17.519  0.00  0.00    -0.082 A 
ATOM      9  C   UNL     1      51.728  13.391  17.504  0.00  0.00    +0.070 A 
ATOM     10  O   UNL     1      52.741  13.510  18.413  0.00  0.00    -0.304 OA
ATOM     11  C   UNL     1      52.343  14.076  19.676  0.00  0.00    +0.327 C 
ATOM     14  C   UNL     1      51.789  15.469  19.390  0.00  0.00    -0.009 C 
ATOM     15  C   UNL     1      51.578  16.260  20.672  0.00  0.00    +0.116 C 
ATOM     16  C   UNL     1      52.971  16.414  21.288  0.00  0.00    +0.376 C 
ATOM     17  C   UNL     1      53.827  15.221  21.316  0.00  0.00    +0.027 C 
ATOM     20  O   UNL     1      53.336  17.477  21.730  0.00  0.00    -0.404 OA
ATOM     21  C   UNL     1      50.723  15.555  21.714  0.00  0.00    +0.031 C 
ATOM     22  C   UNL     1      49.230  15.646  21.413  0.00  0.00    +0.045 C 
ATOM     23  C   UNL     1      48.845  17.111  21.210  0.00  0.00    -0.036 C 
ATOM     24  C   UNL     1      47.371  17.210  20.808  0.00  0.00    +0.014 C 
ATOM     25  C   UNL     1      46.991  18.680  20.624  0.00  0.00    +0.161 C 
ATOM     28  C   UNL     1      47.881  19.321  19.560  0.00  0.00    +0.015 C 
ATOM     32  C   UNL     1      49.351  19.199  19.965  0.00  0.00    +0.182 C 
ATOM     35  C   UNL     1      49.709  17.712  20.098  0.00  0.00    +0.144 C 
ATOM     36  O   UNL     1      51.087  17.567  20.399  0.00  0.00    -0.343 OA
ATOM     37  C   UNL     1      53.525  14.143  20.594  0.00  0.00    -0.077 C 
ATOM     41  C   UNL     1      50.548  15.385  18.517  0.00  0.00    +0.121 C 
ATOM     42  C   UNL     1      51.788  12.366  16.562  0.00  0.00    +0.117 A 
ENDROOT
BRANCH   3   2
ATOM      1  C   UNL     1      49.540  10.277  14.686  0.00  0.00    +0.033 C 
ATOM      2  C   UNL     1      50.829  11.098  14.625  0.00  0.00    +0.039 C 
ATOM     45  C   UNL     1      50.987  11.696  13.226  0.00  0.00    +0.029 C 
ENDBRANCH   3   2
BRANCH  28  29
ATOM     29  C   UNL     1      47.518  20.801  19.415  0.00  0.00    -0.005 C 
ATOM     30  C   UNL     1      47.390  21.434  20.801  0.00  0.00    +0.024 C 
ATOM     31  C   UNL     1      46.188  20.930  18.671  0.00  0.00    +0.008 C 
ENDBRANCH  28  29
BRANCH  37  38
ATOM     38  C   UNL     1      54.413  12.931  20.713  0.00  0.00    +0.030 C 
ATOM     39  C   UNL     1      54.712  12.660  22.188  0.00  0.00    +0.045 C 
ATOM     40  C   UNL     1      55.724  13.185  19.964  0.00  0.00    +0.037 C 
ENDBRANCH  37  38
BRANCH   4   5
ATOM      5  O   UNL     1      48.677  12.925  14.758  0.00  0.00    -0.303 OA
ATOM      6  C   UNL     1      47.349  13.178  15.221  0.00  0.00    +0.235 C 
ENDBRANCH   4   5
BRANCH  11  12
ATOM     12  O   UNL     1      51.340  13.229  20.232  0.00  0.00    -0.365 OA
ATOM     13  C   UNL     1      51.733  11.860  20.344  0.00  0.00    +0.221 C 
ENDBRANCH  11  12
BRANCH  17  18
ATOM     18  O   UNL     1      54.944  15.211  22.094  0.00  0.00    -0.308 OA
ATOM     19  C   UNL     1      55.970  16.151  21.768  0.00  0.00    +0.237 C 
ENDBRANCH  17  18
BRANCH  25  26
ATOM     26  O   UNL     1      45.624  18.768  20.215  0.00  0.00    -0.377 OA
ATOM     27  C   UNL     1      44.945  17.511  20.181  0.00  0.00    +0.200 C 
ENDBRANCH  25  26
BRANCH  32  33
ATOM     33  O   UNL     1      50.181  19.797  18.968  0.00  0.00    -0.363 OA
ATOM     34  C   UNL     1      51.066  20.799  19.475  0.00  0.00    +0.206 C 
ENDBRANCH  32  33
BRANCH  42  43
ATOM     43  O   UNL     1      52.850  11.518  16.546  0.00  0.00    -0.321 OA
ATOM     44  C   UNL     1      52.721  10.304  17.290  0.00  0.00    +0.226 C 
ENDBRANCH  42  43
TORSDOF 9
ENDMDL
MODEL 4
REMARK VINA RESULT:      -4.8      1.764      6.111
REMARK  Name = ZINC95486067
REMARK  21 active torsions:
REMARK  status: ('A' for Active; 'I' for Inactive)
REMARK    1  A    between atoms: C1_1  and  C2_2
REMARK    2  A    between atoms: C2_2  and  C3_3
REMARK    3  A    between atoms: C2_2  and  C4_4
REMARK    4  A    between atoms: C5_5  and  O9_50
REMARK    5  A    between atoms: C9_9  and  O1_10
REMARK    6  A    between atoms: O1_10  and  C10_11
REMARK    7  A    between atoms: C11_13  and  O8_48
REMARK    8  A    between atoms: C19_23  and  O5_37
REMARK    9  A    between atoms: C20_25  and  C24_34
REMARK   10  A    between atoms: C21_27  and  O4_32
REMARK   11  A    between atoms: O4_32  and  C23_33
REMARK   12  A    between atoms: C24_34  and  C25_35
REMARK   13  A    between atoms: C24_34  and  C26_36
REMARK   14  A    between atoms: O5_37  and  C27_38
REMARK   15  A    between atoms: C29_41  and  O7_46
REMARK   16  A    between atoms: C30_42  and  C31_43
REMARK   17  A    between atoms: C31_43  and  C32_44
REMARK   18  A    between atoms: C31_43  and  C33_45
REMARK   19  A    between atoms: O7_46  and  C34_47
REMARK   20  A    between atoms: O8_48  and  C35_49
REMARK   21  A    between atoms: O9_50  and  C36_51
REMARK                            x       y       z     vdW  Elec       q    Type
REMARK                         _______ _______ _______ _____ _____    ______ ____
ROOT
ATOM      3  C   UNL     1      48.038  12.891  17.145  0.00  0.00    -0.102 A 
ATOM      4  C   UNL     1      46.776  13.394  17.422  0.00  0.00    +0.131 A 
ATOM      7  C   UNL     1      46.644  14.594  18.103  0.00  0.00    -0.049 A 
ATOM      8  C   UNL     1      47.768  15.299  18.510  0.00  0.00    -0.082 A 
ATOM      9  C   UNL     1      49.025  14.797  18.234  0.00  0.00    +0.070 A 
ATOM     10  O   UNL     1      50.151  15.457  18.637  0.00  0.00    -0.304 OA
ATOM     11  C   UNL     1      49.983  16.246  19.829  0.00  0.00    +0.327 C 
ATOM     14  C   UNL     1      48.900  17.281  19.534  0.00  0.00    -0.009 C 
ATOM     15  C   UNL     1      48.820  18.333  20.629  0.00  0.00    +0.116 C 
ATOM     16  C   UNL     1      50.178  19.040  20.614  0.00  0.00    +0.376 C 
ATOM     17  C   UNL     1      51.374  18.192  20.522  0.00  0.00    +0.027 C 
ATOM     20  O   UNL     1      50.247  20.244  20.676  0.00  0.00    -0.404 OA
ATOM     21  C   UNL     1      48.645  17.771  22.031  0.00  0.00    +0.031 C 
ATOM     22  C   UNL     1      47.207  17.355  22.326  0.00  0.00    +0.045 C 
ATOM     23  C   UNL     1      46.272  18.526  22.027  0.00  0.00    -0.036 C 
ATOM     24  C   UNL     1      44.817  18.093  22.222  0.00  0.00    +0.014 C 
ATOM     25  C   UNL     1      43.891  19.277  21.937  0.00  0.00    +0.161 C 
ATOM     28  C   UNL     1      44.113  19.784  20.512  0.00  0.00    +0.015 C 
ATOM     32  C   UNL     1      45.574  20.195  20.326  0.00  0.00    +0.182 C 
ATOM     35  C   UNL     1      46.471  18.975  20.577  0.00  0.00    +0.144 C 
ATOM     36  O   UNL     1      47.828  19.310  20.337  0.00  0.00    -0.343 OA
ATOM     37  C   UNL     1      51.280  16.907  20.184  0.00  0.00    -0.077 C 
ATOM     41  C   UNL     1      47.572  16.602  19.246  0.00  0.00    +0.121 C 
ATOM     42  C   UNL     1      49.162  13.592  17.546  0.00  0.00    +0.117 A 
ENDROOT
BRANCH   3   2
ATOM      1  C   UNL     1      47.590  10.454  17.240  0.00  0.00    +0.033 C 
ATOM      2  C   UNL     1      48.187  11.587  16.403  0.00  0.00    +0.039 C 
ATOM     45  C   UNL     1      47.451  11.674  15.065  0.00  0.00    +0.029 C 
ENDBRANCH   3   2
BRANCH  28  29
ATOM     29  C   UNL     1      43.210  20.992  20.254  0.00  0.00    -0.005 C 
ATOM     30  C   UNL     1      42.401  20.761  18.976  0.00  0.00    +0.024 C 
ATOM     31  C   UNL     1      44.070  22.246  20.093  0.00  0.00    +0.008 C 
ENDBRANCH  28  29
BRANCH  37  38
ATOM     38  C   UNL     1      52.539  16.079  20.164  0.00  0.00    +0.030 C 
ATOM     39  C   UNL     1      53.189  16.108  21.548  0.00  0.00    +0.045 C 
ATOM     40  C   UNL     1      53.510  16.653  19.130  0.00  0.00    +0.037 C 
ENDBRANCH  37  38
BRANCH   4   5
ATOM      5  O   UNL     1      45.669  12.708  17.031  0.00  0.00    -0.303 OA
ATOM      6  C   UNL     1      44.640  12.527  18.005  0.00  0.00    +0.235 C 
ENDBRANCH   4   5
BRANCH  11  12
ATOM     12  O   UNL     1      49.581  15.367  20.876  0.00  0.00    -0.365 OA
ATOM     13  C   UNL     1      50.331  14.152  20.936  0.00  0.00    +0.221 C 
ENDBRANCH  11  12
BRANCH  17  18
ATOM     18  O   UNL     1      52.599  18.724  20.789  0.00  0.00    -0.308 OA
ATOM     19  C   UNL     1      52.775  19.337  22.067  0.00  0.00    +0.237 C 
ENDBRANCH  17  18
BRANCH  25  26
ATOM     26  O   UNL     1      42.531  18.861  22.085  0.00  0.00    -0.377 OA
ATOM     27  C   UNL     1      42.303  17.489  21.755  0.00  0.00    +0.200 C 
ENDBRANCH  25  26
BRANCH  32  33
ATOM     33  O   UNL     1      45.780  20.667  18.994  0.00  0.00    -0.363 OA
ATOM     34  C   UNL     1      45.756  19.637  18.003  0.00  0.00    +0.206 C 
ENDBRANCH  32  33
BRANCH  42  43
ATOM     43  O   UNL     1      50.401  13.103  17.272  0.00  0.00    -0.321 OA
ATOM     44  C   UNL     1      51.025  13.560  16.070  0.00  0.00    +0.226 C 
ENDBRANCH  42  43
TORSDOF 9
ENDMDL
MODEL 5
REMARK VINA RESULT:      -4.6      2.731      6.979
REMARK  Name = ZINC95486067
REMARK  21 active torsions:
REMARK  status: ('A' for Active; 'I' for Inactive)
REMARK    1  A    between atoms: C1_1  and  C2_2
REMARK    2  A    between atoms: C2_2  and  C3_3
REMARK    3  A    between atoms: C2_2  and  C4_4
REMARK    4  A    between atoms: C5_5  and  O9_50
REMARK    5  A    between atoms: C9_9  and  O1_10
REMARK    6  A    between atoms: O1_10  and  C10_11
REMARK    7  A    between atoms: C11_13  and  O8_48
REMARK    8  A    between atoms: C19_23  and  O5_37
REMARK    9  A    between atoms: C20_25  and  C24_34
REMARK   10  A    between atoms: C21_27  and  O4_32
REMARK   11  A    between atoms: O4_32  and  C23_33
REMARK   12  A    between atoms: C24_34  and  C25_35
REMARK   13  A    between atoms: C24_34  and  C26_36
REMARK   14  A    between atoms: O5_37  and  C27_38
REMARK   15  A    between atoms: C29_41  and  O7_46
REMARK   16  A    between atoms: C30_42  and  C31_43
REMARK   17  A    between atoms: C31_43  and  C32_44
REMARK   18  A    between atoms: C31_43  and  C33_45
REMARK   19  A    between atoms: O7_46  and  C34_47
REMARK   20  A    between atoms: O8_48  and  C35_49
REMARK   21  A    between atoms: O9_50  and  C36_51
REMARK                            x       y       z     vdW  Elec       q    Type
REMARK                         _______ _______ _______ _____ _____    ______ ____
ROOT
ATOM      3  C   UNL     1      48.750  11.925  16.619  0.00  0.00    -0.102 A 
ATOM      4  C   UNL     1      48.219  13.170  16.923  0.00  0.00    +0.131 A 
ATOM      7  C   UNL     1      49.007  14.124  17.547  0.00  0.00    -0.049 A 
ATOM      8  C   UNL     1      50.327  13.843  17.872  0.00  0.00    -0.082 A 
ATOM      9  C   UNL     1      50.855  12.603  17.569  0.00  0.00    +0.070 A 
ATOM     10  O   UNL     1      52.145  12.289  17.892  0.00  0.00    -0.304 OA
ATOM     11  C   UNL     1      52.653  12.978  19.049  0.00  0.00    +0.327 C 
ATOM     14  C   UNL     1      52.584  14.473  18.748  0.00  0.00    -0.009 C 
ATOM     15  C   UNL     1      53.333  15.288  19.791  0.00  0.00    +0.116 C 
ATOM     16  C   UNL     1      54.793  14.843  19.684  0.00  0.00    +0.376 C 
ATOM     17  C   UNL     1      55.048  13.399  19.585  0.00  0.00    +0.027 C 
ATOM     20  O   UNL     1      55.687  15.655  19.684  0.00  0.00    -0.404 OA
ATOM     21  C   UNL     1      52.906  15.018  21.226  0.00  0.00    +0.031 C 
ATOM     22  C   UNL     1      51.609  15.731  21.600  0.00  0.00    +0.045 C 
ATOM     23  C   UNL     1      51.741  17.219  21.282  0.00  0.00    -0.036 C 
ATOM     24  C   UNL     1      50.413  17.929  21.558  0.00  0.00    +0.014 C 
ATOM     25  C   UNL     1      50.561  19.421  21.253  0.00  0.00    +0.161 C 
ATOM     28  C   UNL     1      50.981  19.618  19.796  0.00  0.00    +0.015 C 
ATOM     32  C   UNL     1      52.299  18.888  19.530  0.00  0.00    +0.182 C 
ATOM     35  C   UNL     1      52.102  17.390  19.804  0.00  0.00    +0.144 C 
ATOM     36  O   UNL     1      53.288  16.678  19.491  0.00  0.00    -0.343 OA
ATOM     37  C   UNL     1      54.062  12.545  19.317  0.00  0.00    -0.077 C 
ATOM     41  C   UNL     1      51.144  14.916  18.549  0.00  0.00    +0.121 C 
ATOM     42  C   UNL     1      50.067  11.642  16.938  0.00  0.00    +0.117 A 
ENDROOT
BRANCH   3   2
ATOM      1  C   UNL     1      46.721  10.519  16.844  0.00  0.00    +0.033 C 
ATOM      2  C   UNL     1      47.898  10.884  15.938  0.00  0.00    +0.039 C 
ATOM     45  C   UNL     1      47.370  11.443  14.615  0.00  0.00    +0.029 C 
ENDBRANCH   3   2
BRANCH  28  29
ATOM     29  C   UNL     1      51.164  21.111  19.515  0.00  0.00    -0.005 C 
ATOM     30  C   UNL     1      50.874  21.393  18.040  0.00  0.00    +0.024 C 
ATOM     31  C   UNL     1      52.603  21.518  19.839  0.00  0.00    +0.008 C 
ENDBRANCH  28  29
BRANCH  37  38
ATOM     38  C   UNL     1      54.380  11.072  19.287  0.00  0.00    +0.030 C 
ATOM     39  C   UNL     1      53.688  10.426  18.085  0.00  0.00    +0.045 C 
ATOM     40  C   UNL     1      53.881  10.417  20.577  0.00  0.00    +0.037 C 
ENDBRANCH  37  38
BRANCH   4   5
ATOM      5  O   UNL     1      46.926  13.452  16.612  0.00  0.00    -0.303 OA
ATOM      6  C   UNL     1      46.548  14.830  16.597  0.00  0.00    +0.235 C 
ENDBRANCH   4   5
BRANCH  11  12
ATOM     12  O   UNL     1      51.820  12.639  20.155  0.00  0.00    -0.365 OA
ATOM     13  C   UNL     1      51.147  11.387  20.013  0.00  0.00    +0.221 C 
ENDBRANCH  11  12
BRANCH  17  18
ATOM     18  O   UNL     1      56.310  12.924  19.775  0.00  0.00    -0.308 OA
ATOM     19  C   UNL     1      56.801  12.905  21.116  0.00  0.00    +0.237 C 
ENDBRANCH  17  18
BRANCH  25  26
ATOM     26  O   UNL     1      49.310  20.077  21.478  0.00  0.00    -0.377 OA
ATOM     27  C   UNL     1      48.190  19.409  20.893  0.00  0.00    +0.200 C 
ENDBRANCH  25  26
BRANCH  32  33
ATOM     33  O   UNL     1      52.689  19.072  18.168  0.00  0.00    -0.363 OA
ATOM     34  C   UNL     1      51.895  18.337  17.232  0.00  0.00    +0.206 C 
ENDBRANCH  32  33
BRANCH  42  43
ATOM     43  O   UNL     1      50.591  10.424  16.637  0.00  0.00    -0.321 OA
ATOM     44  C   UNL     1      51.200  10.280  15.352  0.00  0.00    +0.226 C 
ENDBRANCH  42  43
TORSDOF 9
ENDMDL
MODEL 6
REMARK VINA RESULT:      -4.1      2.178      8.166
REMARK  Name = ZINC95486067
REMARK  21 active torsions:
REMARK  status: ('A' for Active; 'I' for Inactive)
REMARK    1  A    between atoms: C1_1  and  C2_2
REMARK    2  A    between atoms: C2_2  and  C3_3
REMARK    3  A    between atoms: C2_2  and  C4_4
REMARK    4  A    between atoms: C5_5  and  O9_50
REMARK    5  A    between atoms: C9_9  and  O1_10
REMARK    6  A    between atoms: O1_10  and  C10_11
REMARK    7  A    between atoms: C11_13  and  O8_48
REMARK    8  A    between atoms: C19_23  and  O5_37
REMARK    9  A    between atoms: C20_25  and  C24_34
REMARK   10  A    between atoms: C21_27  and  O4_32
REMARK   11  A    between atoms: O4_32  and  C23_33
REMARK   12  A    between atoms: C24_34  and  C25_35
REMARK   13  A    between atoms: C24_34  and  C26_36
REMARK   14  A    between atoms: O5_37  and  C27_38
REMARK   15  A    between atoms: C29_41  and  O7_46
REMARK   16  A    between atoms: C30_42  and  C31_43
REMARK   17  A    between atoms: C31_43  and  C32_44
REMARK   18  A    between atoms: C31_43  and  C33_45
REMARK   19  A    between atoms: O7_46  and  C34_47
REMARK   20  A    between atoms: O8_48  and  C35_49
REMARK   21  A    between atoms: O9_50  and  C36_51
REMARK                            x       y       z     vdW  Elec       q    Type
REMARK                         _______ _______ _______ _____ _____    ______ ____
ROOT
ATOM      3  C   UNL     1      45.190  21.103  19.612  0.00  0.00    -0.102 A 
ATOM      4  C   UNL     1      44.742  19.970  18.950  0.00  0.00    +0.131 A 
ATOM      7  C   UNL     1      45.557  18.853  18.862  0.00  0.00    -0.049 A 
ATOM      8  C   UNL     1      46.821  18.859  19.433  0.00  0.00    -0.082 A 
ATOM      9  C   UNL     1      47.268  19.988  20.092  0.00  0.00    +0.070 A 
ATOM     10  O   UNL     1      48.514  20.032  20.649  0.00  0.00    -0.304 OA
ATOM     11  C   UNL     1      49.489  19.201  19.992  0.00  0.00    +0.327 C 
ATOM     14  C   UNL     1      48.979  17.764  20.068  0.00  0.00    -0.009 C 
ATOM     15  C   UNL     1      50.046  16.769  19.637  0.00  0.00    +0.116 C 
ATOM     16  C   UNL     1      51.185  16.931  20.647  0.00  0.00    +0.376 C 
ATOM     17  C   UNL     1      51.583  18.301  20.995  0.00  0.00    +0.027 C 
ATOM     20  O   UNL     1      51.724  15.963  21.128  0.00  0.00    -0.404 OA
ATOM     21  C   UNL     1      50.646  17.044  18.267  0.00  0.00    +0.031 C 
ATOM     22  C   UNL     1      49.749  16.577  17.124  0.00  0.00    +0.045 C 
ATOM     23  C   UNL     1      49.384  15.108  17.337  0.00  0.00    -0.036 C 
ATOM     24  C   UNL     1      48.404  14.654  16.254  0.00  0.00    +0.014 C 
ATOM     25  C   UNL     1      48.059  13.178  16.466  0.00  0.00    +0.161 C 
ATOM     28  C   UNL     1      47.454  12.977  17.855  0.00  0.00    +0.015 C 
ATOM     32  C   UNL     1      48.436  13.453  18.927  0.00  0.00    +0.182 C 
ATOM     35  C   UNL     1      48.726  14.944  18.710  0.00  0.00    +0.144 C 
ATOM     36  O   UNL     1      49.576  15.430  19.736  0.00  0.00    -0.343 OA
ATOM     37  C   UNL     1      50.815  19.341  20.674  0.00  0.00    -0.077 C 
ATOM     41  C   UNL     1      47.670  17.617  19.312  0.00  0.00    +0.121 C 
ATOM     42  C   UNL     1      46.449  21.112  20.186  0.00  0.00    +0.117 A 
ENDROOT
BRANCH   3   2
ATOM      1  C   UNL     1      44.001  22.610  21.183  0.00  0.00    +0.033 C 
ATOM      2  C   UNL     1      44.307  22.321  19.712  0.00  0.00    +0.039 C 
ATOM     45  C   UNL     1      45.023  23.524  19.094  0.00  0.00    +0.029 C 
ENDBRANCH   3   2
BRANCH  28  29
ATOM     29  C   UNL     1      47.151  11.493  18.069  0.00  0.00    -0.005 C 
ATOM     30  C   UNL     1      48.399  10.666  17.755  0.00  0.00    +0.024 C 
ATOM     31  C   UNL     1      46.010  11.065  17.144  0.00  0.00    +0.008 C 
ENDBRANCH  28  29
BRANCH  37  38
ATOM     38  C   UNL     1      51.309  20.725  21.009  0.00  0.00    +0.030 C 
ATOM     39  C   UNL     1      52.577  21.021  20.207  0.00  0.00    +0.045 C 
ATOM     40  C   UNL     1      51.619  20.807  22.505  0.00  0.00    +0.037 C 
ENDBRANCH  37  38
BRANCH   4   5
ATOM      5  O   UNL     1      43.506  19.958  18.384  0.00  0.00    -0.303 OA
ATOM      6  C   UNL     1      42.424  19.498  19.197  0.00  0.00    +0.235 C 
ENDBRANCH   4   5
BRANCH  11  12
ATOM     12  O   UNL     1      49.588  19.638  18.639  0.00  0.00    -0.365 OA
ATOM     13  C   UNL     1      49.657  21.058  18.490  0.00  0.00    +0.221 C 
ENDBRANCH  11  12
BRANCH  17  18
ATOM     18  O   UNL     1      52.756  18.515  21.653  0.00  0.00    -0.308 OA
ATOM     19  C   UNL     1      53.824  17.604  21.388  0.00  0.00    +0.237 C 
ENDBRANCH  17  18
BRANCH  25  26
ATOM     26  O   UNL     1      47.116  12.765  15.474  0.00  0.00    -0.377 OA
ATOM     27  C   UNL     1      47.712  12.346  14.244  0.00  0.00    +0.200 C 
ENDBRANCH  25  26
BRANCH  32  33
ATOM     33  O   UNL     1      47.868  13.265  20.223  0.00  0.00    -0.363 OA
ATOM     34  C   UNL     1      46.668  14.010  20.445  0.00  0.00    +0.206 C 
ENDBRANCH  32  33
BRANCH  42  43
ATOM     43  O   UNL     1      46.890  22.220  20.840  0.00  0.00    -0.321 OA
ATOM     44  C   UNL     1      47.114  22.097  22.246  0.00  0.00    +0.226 C 
ENDBRANCH  42  43
TORSDOF 9
ENDMDL
MODEL 7
REMARK VINA RESULT:      -3.3      2.745      7.301
REMARK  Name = ZINC95486067
REMARK  21 active torsions:
REMARK  status: ('A' for Active; 'I' for Inactive)
REMARK    1  A    between atoms: C1_1  and  C2_2
REMARK    2  A    between atoms: C2_2  and  C3_3
REMARK    3  A    between atoms: C2_2  and  C4_4
REMARK    4  A    between atoms: C5_5  and  O9_50
REMARK    5  A    between atoms: C9_9  and  O1_10
REMARK    6  A    between atoms: O1_10  and  C10_11
REMARK    7  A    between atoms: C11_13  and  O8_48
REMARK    8  A    between atoms: C19_23  and  O5_37
REMARK    9  A    between atoms: C20_25  and  C24_34
REMARK   10  A    between atoms: C21_27  and  O4_32
REMARK   11  A    between atoms: O4_32  and  C23_33
REMARK   12  A    between atoms: C24_34  and  C25_35
REMARK   13  A    between atoms: C24_34  and  C26_36
REMARK   14  A    between atoms: O5_37  and  C27_38
REMARK   15  A    between atoms: C29_41  and  O7_46
REMARK   16  A    between atoms: C30_42  and  C31_43
REMARK   17  A    between atoms: C31_43  and  C32_44
REMARK   18  A    between atoms: C31_43  and  C33_45
REMARK   19  A    between atoms: O7_46  and  C34_47
REMARK   20  A    between atoms: O8_48  and  C35_49
REMARK   21  A    between atoms: O9_50  and  C36_51
REMARK                            x       y       z     vdW  Elec       q    Type
REMARK                         _______ _______ _______ _____ _____    ______ ____
ROOT
ATOM      3  C   UNL     1      50.472  19.899  17.923  0.00  0.00    -0.102 A 
ATOM      4  C   UNL     1      51.104  18.798  17.363  0.00  0.00    +0.131 A 
ATOM      7  C   UNL     1      50.548  17.537  17.504  0.00  0.00    -0.049 A 
ATOM      8  C   UNL     1      49.360  17.365  18.201  0.00  0.00    -0.082 A 
ATOM      9  C   UNL     1      48.732  18.462  18.758  0.00  0.00    +0.070 A 
ATOM     10  O   UNL     1      47.572  18.324  19.466  0.00  0.00    -0.304 OA
ATOM     11  C   UNL     1      47.423  17.051  20.122  0.00  0.00    +0.327 C 
ATOM     14  C   UNL     1      47.452  15.980  19.035  0.00  0.00    -0.009 C 
ATOM     15  C   UNL     1      47.044  14.620  19.581  0.00  0.00    +0.116 C 
ATOM     16  C   UNL     1      45.598  14.787  20.053  0.00  0.00    +0.376 C 
ATOM     17  C   UNL     1      45.282  15.994  20.829  0.00  0.00    +0.027 C 
ATOM     20  O   UNL     1      44.764  13.954  19.792  0.00  0.00    -0.404 OA
ATOM     21  C   UNL     1      47.841  14.164  20.794  0.00  0.00    +0.031 C 
ATOM     22  C   UNL     1      49.212  13.605  20.424  0.00  0.00    +0.045 C 
ATOM     23  C   UNL     1      49.044  12.511  19.370  0.00  0.00    -0.036 C 
ATOM     24  C   UNL     1      50.417  12.011  18.916  0.00  0.00    +0.014 C 
ATOM     25  C   UNL     1      50.236  10.905  17.874  0.00  0.00    +0.161 C 
ATOM     28  C   UNL     1      49.438  11.434  16.682  0.00  0.00    +0.015 C 
ATOM     32  C   UNL     1      48.076  11.948  17.153  0.00  0.00    +0.182 C 
ATOM     35  C   UNL     1      48.294  13.083  18.163  0.00  0.00    +0.144 C 
ATOM     36  O   UNL     1      47.047  13.630  18.559  0.00  0.00    -0.343 OA
ATOM     37  C   UNL     1      46.129  17.020  20.877  0.00  0.00    -0.077 C 
ATOM     41  C   UNL     1      48.794  15.972  18.324  0.00  0.00    +0.121 C 
ATOM     42  C   UNL     1      49.286  19.733  18.616  0.00  0.00    +0.117 A 
ENDROOT
BRANCH   3   2
ATOM      1  C   UNL     1      52.207  21.448  18.781  0.00  0.00    +0.033 C 
ATOM      2  C   UNL     1      51.072  21.274  17.771  0.00  0.00    +0.039 C 
ATOM     45  C   UNL     1      51.622  21.438  16.353  0.00  0.00    +0.029 C 
ENDBRANCH   3   2
BRANCH  28  29
ATOM     29  C   UNL     1      49.230  10.309  15.667  0.00  0.00    -0.005 C 
ATOM     30  C   UNL     1      50.121  10.550  14.447  0.00  0.00    +0.024 C 
ATOM     31  C   UNL     1      47.765  10.280  15.230  0.00  0.00    +0.008 C 
ENDBRANCH  28  29
BRANCH  37  38
ATOM     38  C   UNL     1      45.770  18.204  21.738  0.00  0.00    +0.030 C 
ATOM     39  C   UNL     1      44.480  17.906  22.504  0.00  0.00    +0.045 C 
ATOM     40  C   UNL     1      45.565  19.435  20.851  0.00  0.00    +0.037 C 
ENDBRANCH  37  38
BRANCH   4   5
ATOM      5  O   UNL     1      52.270  18.957  16.682  0.00  0.00    -0.303 OA
ATOM      6  C   UNL     1      52.365  18.326  15.403  0.00  0.00    +0.235 C 
ENDBRANCH   4   5
BRANCH  11  12
ATOM     12  O   UNL     1      48.517  16.898  21.022  0.00  0.00    -0.365 OA
ATOM     13  C   UNL     1      48.195  17.191  22.383  0.00  0.00    +0.221 C 
ENDBRANCH  11  12
BRANCH  17  18
ATOM     18  O   UNL     1      44.107  16.066  21.514  0.00  0.00    -0.308 OA
ATOM     19  C   UNL     1      43.870  15.062  22.502  0.00  0.00    +0.237 C 
ENDBRANCH  17  18
BRANCH  25  26
ATOM     26  O   UNL     1      51.520  10.464  17.425  0.00  0.00    -0.377 OA
ATOM     27  C   UNL     1      52.599  11.313  17.821  0.00  0.00    +0.200 C 
ENDBRANCH  25  26
BRANCH  32  33
ATOM     33  O   UNL     1      47.333  12.443  16.039  0.00  0.00    -0.363 OA
ATOM     34  C   UNL     1      47.655  13.788  15.677  0.00  0.00    +0.206 C 
ENDBRANCH  32  33
BRANCH  42  43
ATOM     43  O   UNL     1      48.662  20.811  19.162  0.00  0.00    -0.321 OA
ATOM     44  C   UNL     1      48.966  21.114  20.525  0.00  0.00    +0.226 C 
ENDBRANCH  42  43
TORSDOF 9
ENDMDL
MODEL 8
REMARK VINA RESULT:      -3.2      2.532      5.490
REMARK  Name = ZINC95486067
REMARK  21 active torsions:
REMARK  status: ('A' for Active; 'I' for Inactive)
REMARK    1  A    between atoms: C1_1  and  C2_2
REMARK    2  A    between atoms: C2_2  and  C3_3
REMARK    3  A    between atoms: C2_2  and  C4_4
REMARK    4  A    between atoms: C5_5  and  O9_50
REMARK    5  A    between atoms: C9_9  and  O1_10
REMARK    6  A    between atoms: O1_10  and  C10_11
REMARK    7  A    between atoms: C11_13  and  O8_48
REMARK    8  A    between atoms: C19_23  and  O5_37
REMARK    9  A    between atoms: C20_25  and  C24_34
REMARK   10  A    between atoms: C21_27  and  O4_32
REMARK   11  A    between atoms: O4_32  and  C23_33
REMARK   12  A    between atoms: C24_34  and  C25_35
REMARK   13  A    between atoms: C24_34  and  C26_36
REMARK   14  A    between atoms: O5_37  and  C27_38
REMARK   15  A    between atoms: C29_41  and  O7_46
REMARK   16  A    between atoms: C30_42  and  C31_43
REMARK   17  A    between atoms: C31_43  and  C32_44
REMARK   18  A    between atoms: C31_43  and  C33_45
REMARK   19  A    between atoms: O7_46  and  C34_47
REMARK   20  A    between atoms: O8_48  and  C35_49
REMARK   21  A    between atoms: O9_50  and  C36_51
REMARK                            x       y       z     vdW  Elec       q    Type
REMARK                         _______ _______ _______ _____ _____    ______ ____
ROOT
ATOM      3  C   UNL     1      52.095  11.954  20.344  0.00  0.00    -0.102 A 
ATOM      4  C   UNL     1      52.812  13.074  19.949  0.00  0.00    +0.131 A 
ATOM      7  C   UNL     1      52.194  14.314  19.916  0.00  0.00    -0.049 A 
ATOM      8  C   UNL     1      50.860  14.445  20.277  0.00  0.00    -0.082 A 
ATOM      9  C   UNL     1      50.147  13.329  20.669  0.00  0.00    +0.070 A 
ATOM     10  O   UNL     1      48.828  13.421  21.012  0.00  0.00    -0.304 OA
ATOM     11  C   UNL     1      48.115  14.485  20.353  0.00  0.00    +0.327 C 
ATOM     14  C   UNL     1      48.803  15.792  20.737  0.00  0.00    -0.009 C 
ATOM     15  C   UNL     1      47.984  17.001  20.311  0.00  0.00    +0.116 C 
ATOM     16  C   UNL     1      46.673  16.900  21.093  0.00  0.00    +0.376 C 
ATOM     17  C   UNL     1      46.027  15.582  21.152  0.00  0.00    +0.027 C 
ATOM     20  O   UNL     1      46.201  17.871  21.634  0.00  0.00    -0.404 OA
ATOM     21  C   UNL     1      47.605  17.017  18.838  0.00  0.00    +0.031 C 
ATOM     22  C   UNL     1      48.749  17.475  17.939  0.00  0.00    +0.045 C 
ATOM     23  C   UNL     1      49.277  18.820  18.438  0.00  0.00    -0.036 C 
ATOM     24  C   UNL     1      50.489  19.244  17.607  0.00  0.00    +0.014 C 
ATOM     25  C   UNL     1      50.998  20.598  18.104  0.00  0.00    +0.161 C 
ATOM     28  C   UNL     1      51.369  20.507  19.584  0.00  0.00    +0.015 C 
ATOM     32  C   UNL     1      50.154  20.064  20.400  0.00  0.00    +0.182 C 
ATOM     35  C   UNL     1      49.696  18.685  19.904  0.00  0.00    +0.144 C 
ATOM     36  O   UNL     1      48.617  18.216  20.695  0.00  0.00    -0.343 OA
ATOM     37  C   UNL     1      46.682  14.480  20.791  0.00  0.00    -0.077 C 
ATOM     41  C   UNL     1      50.234  15.817  20.226  0.00  0.00    +0.121 C 
ATOM     42  C   UNL     1      50.765  12.081  20.707  0.00  0.00    +0.117 A 
ENDROOT
BRANCH   3   2
ATOM      1  C   UNL     1      53.332  10.277  19.001  0.00  0.00    +0.033 C 
ATOM      2  C   UNL     1      52.763  10.603  20.383  0.00  0.00    +0.039 C 
ATOM     45  C   UNL     1      53.896  10.623  21.410  0.00  0.00    +0.029 C 
ENDBRANCH   3   2
BRANCH  28  29
ATOM     29  C   UNL     1      51.839  21.877  20.078  0.00  0.00    -0.005 C 
ATOM     30  C   UNL     1      53.366  21.896  20.157  0.00  0.00    +0.024 C 
ATOM     31  C   UNL     1      51.252  22.147  21.465  0.00  0.00    +0.008 C 
ENDBRANCH  28  29
BRANCH  37  38
ATOM     38  C   UNL     1      45.944  13.167  20.818  0.00  0.00    +0.030 C 
ATOM     39  C   UNL     1      44.784  13.213  19.822  0.00  0.00    +0.045 C 
ATOM     40  C   UNL     1      45.398  12.919  22.227  0.00  0.00    +0.037 C 
ENDBRANCH  37  38
BRANCH   4   5
ATOM      5  O   UNL     1      54.118  12.954  19.591  0.00  0.00    -0.303 OA
ATOM      6  C   UNL     1      54.954  14.094  19.795  0.00  0.00    +0.235 C 
ENDBRANCH   4   5
BRANCH  11  12
ATOM     12  O   UNL     1      48.198  14.256  18.949  0.00  0.00    -0.365 OA
ATOM     13  C   UNL     1      47.962  12.899  18.567  0.00  0.00    +0.221 C 
ENDBRANCH  11  12
BRANCH  17  18
ATOM     18  O   UNL     1      44.737  15.482  21.577  0.00  0.00    -0.308 OA
ATOM     19  C   UNL     1      44.168  16.634  22.200  0.00  0.00    +0.237 C 
ENDBRANCH  17  18
BRANCH  25  26
ATOM     26  O   UNL     1      52.153  20.976  17.349  0.00  0.00    -0.377 OA
ATOM     27  C   UNL     1      52.203  20.406  16.039  0.00  0.00    +0.200 C 
ENDBRANCH  25  26
BRANCH  32  33
ATOM     33  O   UNL     1      50.502  19.978  21.782  0.00  0.00    -0.363 OA
ATOM     34  C   UNL     1      51.361  18.879  22.097  0.00  0.00    +0.206 C 
ENDBRANCH  32  33
BRANCH  42  43
ATOM     43  O   UNL     1      50.062  10.985  21.098  0.00  0.00    -0.321 OA
ATOM     44  C   UNL     1      50.003  10.720  22.501  0.00  0.00    +0.226 C 
ENDBRANCH  42  43
TORSDOF 9
ENDMDL
MODEL 9
REMARK VINA RESULT:      -3.0      2.476      6.036
REMARK  Name = ZINC95486067
REMARK  21 active torsions:
REMARK  status: ('A' for Active; 'I' for Inactive)
REMARK    1  A    between atoms: C1_1  and  C2_2
REMARK    2  A    between atoms: C2_2  and  C3_3
REMARK    3  A    between atoms: C2_2  and  C4_4
REMARK    4  A    between atoms: C5_5  and  O9_50
REMARK    5  A    between atoms: C9_9  and  O1_10
REMARK    6  A    between atoms: O1_10  and  C10_11
REMARK    7  A    between atoms: C11_13  and  O8_48
REMARK    8  A    between atoms: C19_23  and  O5_37
REMARK    9  A    between atoms: C20_25  and  C24_34
REMARK   10  A    between atoms: C21_27  and  O4_32
REMARK   11  A    between atoms: O4_32  and  C23_33
REMARK   12  A    between atoms: C24_34  and  C25_35
REMARK   13  A    between atoms: C24_34  and  C26_36
REMARK   14  A    between atoms: O5_37  and  C27_38
REMARK   15  A    between atoms: C29_41  and  O7_46
REMARK   16  A    between atoms: C30_42  and  C31_43
REMARK   17  A    between atoms: C31_43  and  C32_44
REMARK   18  A    between atoms: C31_43  and  C33_45
REMARK   19  A    between atoms: O7_46  and  C34_47
REMARK   20  A    between atoms: O8_48  and  C35_49
REMARK   21  A    between atoms: O9_50  and  C36_51
REMARK                            x       y       z     vdW  Elec       q    Type
REMARK                         _______ _______ _______ _____ _____    ______ ____
ROOT
ATOM      3  C   UNL     1      50.521  11.858  16.476  0.00  0.00    -0.102 A 
ATOM      4  C   UNL     1      51.270  13.003  16.250  0.00  0.00    +0.131 A 
ATOM      7  C   UNL     1      51.016  14.152  16.982  0.00  0.00    -0.049 A 
ATOM      8  C   UNL     1      50.015  14.166  17.944  0.00  0.00    -0.082 A 
ATOM      9  C   UNL     1      49.269  13.025  18.168  0.00  0.00    +0.070 A 
ATOM     10  O   UNL     1      48.265  13.011  19.094  0.00  0.00    -0.304 OA
ATOM     11  C   UNL     1      47.632  14.287  19.304  0.00  0.00    +0.327 C 
ATOM     14  C   UNL     1      48.714  15.252  19.784  0.00  0.00    -0.009 C 
ATOM     15  C   UNL     1      48.117  16.558  20.285  0.00  0.00    +0.116 C 
ATOM     16  C   UNL     1      47.248  16.174  21.485  0.00  0.00    +0.376 C 
ATOM     17  C   UNL     1      46.378  14.999  21.334  0.00  0.00    +0.027 C 
ATOM     20  O   UNL     1      47.286  16.819  22.505  0.00  0.00    -0.404 OA
ATOM     21  C   UNL     1      47.195  17.250  19.292  0.00  0.00    +0.031 C 
ATOM     22  C   UNL     1      47.956  18.012  18.212  0.00  0.00    +0.045 C 
ATOM     23  C   UNL     1      48.952  18.965  18.873  0.00  0.00    -0.036 C 
ATOM     24  C   UNL     1      49.793  19.664  17.802  0.00  0.00    +0.014 C 
ATOM     25  C   UNL     1      50.773  20.627  18.473  0.00  0.00    +0.161 C 
ATOM     28  C   UNL     1      51.672  19.865  19.447  0.00  0.00    +0.015 C 
ATOM     32  C   UNL     1      50.817  19.156  20.500  0.00  0.00    +0.182 C 
ATOM     35  C   UNL     1      49.877  18.168  19.796  0.00  0.00    +0.144 C 
ATOM     36  O   UNL     1      49.127  17.442  20.755  0.00  0.00    -0.343 OA
ATOM     37  C   UNL     1      46.542  14.149  20.322  0.00  0.00    -0.077 C 
ATOM     41  C   UNL     1      49.778  15.440  18.716  0.00  0.00    +0.121 C 
ATOM     42  C   UNL     1      49.524  11.867  17.436  0.00  0.00    +0.117 A 
ENDROOT
BRANCH   3   2
ATOM      1  C   UNL     1      50.342  10.809  14.237  0.00  0.00    +0.033 C 
ATOM      2  C   UNL     1      50.795  10.606  15.683  0.00  0.00    +0.039 C 
ATOM     45  C   UNL     1      52.294  10.302  15.710  0.00  0.00    +0.029 C 
ENDBRANCH   3   2
BRANCH  28  29
ATOM     29  C   UNL     1      52.620  20.845  20.141  0.00  0.00    -0.005 C 
ATOM     30  C   UNL     1      51.808  21.832  20.982  0.00  0.00    +0.024 C 
ATOM     31  C   UNL     1      53.422  21.611  19.087  0.00  0.00    +0.008 C 
ENDBRANCH  28  29
BRANCH  37  38
ATOM     38  C   UNL     1      45.579  12.997  20.193  0.00  0.00    +0.030 C 
ATOM     39  C   UNL     1      44.358  13.442  19.386  0.00  0.00    +0.045 C 
ATOM     40  C   UNL     1      45.134  12.546  21.586  0.00  0.00    +0.037 C 
ENDBRANCH  37  38
BRANCH   4   5
ATOM      5  O   UNL     1      52.250  13.000  15.307  0.00  0.00    -0.303 OA
ATOM      6  C   UNL     1      52.130  13.947  14.244  0.00  0.00    +0.235 C 
ENDBRANCH   4   5
BRANCH  11  12
ATOM     12  O   UNL     1      47.085  14.710  18.057  0.00  0.00    -0.365 OA
ATOM     13  C   UNL     1      46.488  13.657  17.298  0.00  0.00    +0.221 C 
ENDBRANCH  11  12
BRANCH  17  18
ATOM     18  O   UNL     1      45.385  14.776  22.239  0.00  0.00    -0.308 OA
ATOM     19  C   UNL     1      44.366  15.772  22.344  0.00  0.00    +0.237 C 
ENDBRANCH  17  18
BRANCH  25  26
ATOM     26  O   UNL     1      51.582  21.252  17.473  0.00  0.00    -0.377 OA
ATOM     27  C   UNL     1      51.763  20.464  16.295  0.00  0.00    +0.200 C 
ENDBRANCH  25  26
BRANCH  32  33
ATOM     33  O   UNL     1      51.659  18.444  21.408  0.00  0.00    -0.363 OA
ATOM     34  C   UNL     1      52.410  17.391  20.799  0.00  0.00    +0.206 C 
ENDBRANCH  32  33
BRANCH  42  43
ATOM     43  O   UNL     1      48.791  10.744  17.663  0.00  0.00    -0.321 OA
ATOM     44  C   UNL     1      47.675  10.514  16.800  0.00  0.00    +0.226 C 
ENDBRANCH  42  43
TORSDOF 9
ENDMDL
