MODEL 1
REMARK VINA RESULT:      -5.8      0.000      0.000
REMARK  Name = ZINC14645874
REMARK  8 active torsions:
REMARK  status: ('A' for Active; 'I' for Inactive)
REMARK    1  A    between atoms: C1_1  and  O1_2
REMARK    2  A    between atoms: O1_2  and  C2_3
REMARK    3  A    between atoms: C3_4  and  C8_10
REMARK    4  A    between atoms: C7_8  and  O2_9
REMARK    5  A    between atoms: C12_15  and  O7_24
REMARK    6  A    between atoms: C13_16  and  O6_23
REMARK    7  A    between atoms: C14_17  and  O5_21
REMARK    8  A    between atoms: O5_21  and  C17_22
REMARK                            x       y       z     vdW  Elec       q    Type
REMARK                         _______ _______ _______ _____ _____    ______ ____
ROOT
ATOM      5  C   UNL     1      44.412  19.242  19.977  0.00  0.00    -0.234 A 
ATOM      6  C   UNL     1      43.951  18.488  21.008  0.00  0.00    +0.332 A 
ATOM      7  O   UNL     1      44.184  17.177  21.100  0.00  0.00    -0.216 OA
ATOM      8  C   UNL     1      44.892  16.485  20.184  0.00  0.00    +0.168 A 
ATOM      9  C   UNL     1      45.098  15.121  20.338  0.00  0.00    -0.005 A 
ATOM     10  C   UNL     1      45.822  14.415  19.391  0.00  0.00    +0.162 A 
ATOM     13  C   UNL     1      46.360  15.063  18.280  0.00  0.00    +0.033 A 
ATOM     16  C   UNL     1      46.166  16.424  18.109  0.00  0.00    +0.179 A 
ATOM     19  C   UNL     1      45.429  17.140  19.062  0.00  0.00    -0.239 A 
ATOM     20  C   UNL     1      45.199  18.586  18.918  0.00  0.00    +0.429 A 
ATOM     21  O   UNL     1      45.639  19.211  17.969  0.00  0.00    -0.418 OA
ENDROOT
BRANCH   5   4
ATOM      3  C   UNL     1      43.019  21.166  19.213  0.00  0.00    +0.097 A 
ATOM      4  C   UNL     1      44.129  20.697  19.917  0.00  0.00    -0.034 A 
ATOM     22  C   UNL     1      44.967  21.599  20.570  0.00  0.00    +0.031 A 
ATOM     23  C   UNL     1      44.704  22.953  20.509  0.00  0.00    +0.029 A 
ATOM     24  C   UNL     1      43.605  23.419  19.811  0.00  0.00    +0.010 A 
ATOM     25  C   UNL     1      42.761  22.530  19.163  0.00  0.00    +0.089 A 
BRANCH   3   2
ATOM      1  C   UNL     1      40.997  19.914  19.264  0.00  0.00    +0.219 C 
ATOM      2  O   UNL     1      42.193  20.291  18.578  0.00  0.00    -0.318 OA
ENDBRANCH   3   2
BRANCH  25  26
ATOM     26  O   UNL     1      41.681  22.994  18.478  0.00  0.00    -0.484 OA
ATOM     27  H   UNL     1      41.557  23.951  18.541  0.00  0.00    +0.387 HD
ENDBRANCH  25  26
ENDBRANCH   5   4
BRANCH  10  11
ATOM     11  O   UNL     1      46.012  13.080  19.547  0.00  0.00    -0.476 OA
ATOM     12  H   UNL     1      46.936  12.828  19.681  0.00  0.00    +0.401 HD
ENDBRANCH  10  11
BRANCH  13  14
ATOM     14  O   UNL     1      47.073  14.357  17.360  0.00  0.00    -0.472 OA
ATOM     15  H   UNL     1      46.528  13.909  16.698  0.00  0.00    +0.392 HD
ENDBRANCH  13  14
BRANCH  16  17
ATOM     17  O   UNL     1      46.684  17.059  17.026  0.00  0.00    -0.315 OA
ATOM     18  C   UNL     1      48.094  17.291  17.024  0.00  0.00    +0.252 C 
ENDBRANCH  16  17
TORSDOF 6
ENDMDL
MODEL 2
REMARK VINA RESULT:      -5.7      1.227      2.715
REMARK  Name = ZINC14645874
REMARK  8 active torsions:
REMARK  status: ('A' for Active; 'I' for Inactive)
REMARK    1  A    between atoms: C1_1  and  O1_2
REMARK    2  A    between atoms: O1_2  and  C2_3
REMARK    3  A    between atoms: C3_4  and  C8_10
REMARK    4  A    between atoms: C7_8  and  O2_9
REMARK    5  A    between atoms: C12_15  and  O7_24
REMARK    6  A    between atoms: C13_16  and  O6_23
REMARK    7  A    between atoms: C14_17  and  O5_21
REMARK    8  A    between atoms: O5_21  and  C17_22
REMARK                            x       y       z     vdW  Elec       q    Type
REMARK                         _______ _______ _______ _____ _____    ______ ____
ROOT
ATOM      5  C   UNL     1      45.686  19.282  19.305  0.00  0.00    -0.234 A 
ATOM      6  C   UNL     1      46.265  19.092  18.092  0.00  0.00    +0.332 A 
ATOM      7  O   UNL     1      46.479  17.878  17.579  0.00  0.00    -0.216 OA
ATOM      8  C   UNL     1      46.145  16.737  18.215  0.00  0.00    +0.168 A 
ATOM      9  C   UNL     1      46.396  15.505  17.627  0.00  0.00    -0.005 A 
ATOM     10  C   UNL     1      46.055  14.336  18.288  0.00  0.00    +0.162 A 
ATOM     13  C   UNL     1      45.448  14.380  19.542  0.00  0.00    +0.033 A 
ATOM     16  C   UNL     1      45.189  15.600  20.145  0.00  0.00    +0.179 A 
ATOM     19  C   UNL     1      45.538  16.784  19.482  0.00  0.00    -0.239 A 
ATOM     20  C   UNL     1      45.281  18.101  20.088  0.00  0.00    +0.429 A 
ATOM     21  O   UNL     1      44.757  18.209  21.182  0.00  0.00    -0.418 OA
ENDROOT
BRANCH   5   4
ATOM      3  C   UNL     1      44.266  21.314  19.582  0.00  0.00    +0.097 A 
ATOM      4  C   UNL     1      45.467  20.650  19.834  0.00  0.00    -0.034 A 
ATOM     22  C   UNL     1      46.457  21.273  20.591  0.00  0.00    +0.031 A 
ATOM     23  C   UNL     1      46.252  22.548  21.079  0.00  0.00    +0.029 A 
ATOM     24  C   UNL     1      45.063  23.208  20.829  0.00  0.00    +0.010 A 
ATOM     25  C   UNL     1      44.068  22.596  20.082  0.00  0.00    +0.089 A 
BRANCH   3   2
ATOM      1  C   UNL     1      42.215  20.109  19.571  0.00  0.00    +0.219 C 
ATOM      2  O   UNL     1      43.292  20.710  18.849  0.00  0.00    -0.318 OA
ENDBRANCH   3   2
BRANCH  25  26
ATOM     26  O   UNL     1      42.900  23.249  19.839  0.00  0.00    -0.484 OA
ATOM     27  H   UNL     1      42.985  23.993  19.228  0.00  0.00    +0.387 HD
ENDBRANCH  25  26
ENDBRANCH   5   4
BRANCH  10  11
ATOM     11  O   UNL     1      46.310  13.135  17.707  0.00  0.00    -0.476 OA
ATOM     12  H   UNL     1      47.116  12.707  18.030  0.00  0.00    +0.401 HD
ENDBRANCH  10  11
BRANCH  13  14
ATOM     14  O   UNL     1      45.113  13.223  20.178  0.00  0.00    -0.472 OA
ATOM     15  H   UNL     1      44.302  12.813  19.847  0.00  0.00    +0.392 HD
ENDBRANCH  13  14
BRANCH  16  17
ATOM     17  O   UNL     1      44.602  15.648  21.369  0.00  0.00    -0.315 OA
ATOM     18  C   UNL     1      45.409  15.287  22.491  0.00  0.00    +0.252 C 
ENDBRANCH  16  17
TORSDOF 6
ENDMDL
MODEL 3
REMARK VINA RESULT:      -5.6      1.588      2.336
REMARK  Name = ZINC14645874
REMARK  8 active torsions:
REMARK  status: ('A' for Active; 'I' for Inactive)
REMARK    1  A    between atoms: C1_1  and  O1_2
REMARK    2  A    between atoms: O1_2  and  C2_3
REMARK    3  A    between atoms: C3_4  and  C8_10
REMARK    4  A    between atoms: C7_8  and  O2_9
REMARK    5  A    between atoms: C12_15  and  O7_24
REMARK    6  A    between atoms: C13_16  and  O6_23
REMARK    7  A    between atoms: C14_17  and  O5_21
REMARK    8  A    between atoms: O5_21  and  C17_22
REMARK                            x       y       z     vdW  Elec       q    Type
REMARK                         _______ _______ _______ _____ _____    ______ ____
ROOT
ATOM      5  C   UNL     1      43.377  18.875  20.430  0.00  0.00    -0.234 A 
ATOM      6  C   UNL     1      42.887  18.388  21.599  0.00  0.00    +0.332 A 
ATOM      7  O   UNL     1      43.301  17.232  22.126  0.00  0.00    -0.216 OA
ATOM      8  C   UNL     1      44.234  16.448  21.550  0.00  0.00    +0.168 A 
ATOM      9  C   UNL     1      44.620  15.258  22.149  0.00  0.00    -0.005 A 
ATOM     10  C   UNL     1      45.576  14.454  21.550  0.00  0.00    +0.162 A 
ATOM     13  C   UNL     1      46.169  14.833  20.346  0.00  0.00    +0.033 A 
ATOM     16  C   UNL     1      45.798  16.018  19.732  0.00  0.00    +0.179 A 
ATOM     19  C   UNL     1      44.827  16.831  20.333  0.00  0.00    -0.239 A 
ATOM     20  C   UNL     1      44.404  18.097  19.715  0.00  0.00    +0.429 A 
ATOM     21  O   UNL     1      44.880  18.484  18.662  0.00  0.00    -0.418 OA
ENDROOT
BRANCH   5   4
ATOM      3  C   UNL     1      43.639  21.328  20.055  0.00  0.00    +0.097 A 
ATOM      4  C   UNL     1      42.888  20.164  19.883  0.00  0.00    -0.034 A 
ATOM     22  C   UNL     1      41.681  20.216  19.190  0.00  0.00    +0.031 A 
ATOM     23  C   UNL     1      41.226  21.417  18.685  0.00  0.00    +0.029 A 
ATOM     24  C   UNL     1      41.969  22.571  18.855  0.00  0.00    +0.010 A 
ATOM     25  C   UNL     1      43.174  22.531  19.538  0.00  0.00    +0.089 A 
BRANCH   3   2
ATOM      1  C   UNL     1      44.791  21.612  22.116  0.00  0.00    +0.219 C 
ATOM      2  O   UNL     1      44.822  21.284  20.726  0.00  0.00    -0.318 OA
ENDBRANCH   3   2
BRANCH  25  26
ATOM     26  O   UNL     1      43.901  23.668  19.703  0.00  0.00    -0.484 OA
ATOM     27  H   UNL     1      44.327  23.742  20.568  0.00  0.00    +0.387 HD
ENDBRANCH  25  26
ENDBRANCH   5   4
BRANCH  10  11
ATOM     11  O   UNL     1      45.941  13.287  22.141  0.00  0.00    -0.476 OA
ATOM     12  H   UNL     1      46.276  12.623  21.523  0.00  0.00    +0.401 HD
ENDBRANCH  10  11
BRANCH  13  14
ATOM     14  O   UNL     1      47.111  14.036  19.771  0.00  0.00    -0.472 OA
ATOM     15  H   UNL     1      46.765  13.198  19.433  0.00  0.00    +0.392 HD
ENDBRANCH  13  14
BRANCH  16  17
ATOM     17  O   UNL     1      46.370  16.389  18.558  0.00  0.00    -0.315 OA
ATOM     18  C   UNL     1      47.713  16.874  18.615  0.00  0.00    +0.252 C 
ENDBRANCH  16  17
TORSDOF 6
ENDMDL
MODEL 4
REMARK VINA RESULT:      -5.4      1.633      6.913
REMARK  Name = ZINC14645874
REMARK  8 active torsions:
REMARK  status: ('A' for Active; 'I' for Inactive)
REMARK    1  A    between atoms: C1_1  and  O1_2
REMARK    2  A    between atoms: O1_2  and  C2_3
REMARK    3  A    between atoms: C3_4  and  C8_10
REMARK    4  A    between atoms: C7_8  and  O2_9
REMARK    5  A    between atoms: C12_15  and  O7_24
REMARK    6  A    between atoms: C13_16  and  O6_23
REMARK    7  A    between atoms: C14_17  and  O5_21
REMARK    8  A    between atoms: O5_21  and  C17_22
REMARK                            x       y       z     vdW  Elec       q    Type
REMARK                         _______ _______ _______ _____ _____    ______ ____
ROOT
ATOM      5  C   UNL     1      46.000  18.030  19.684  0.00  0.00    -0.234 A 
ATOM      6  C   UNL     1      46.976  18.476  20.515  0.00  0.00    +0.332 A 
ATOM      7  O   UNL     1      46.982  19.712  21.019  0.00  0.00    -0.216 OA
ATOM      8  C   UNL     1      46.028  20.626  20.751  0.00  0.00    +0.168 A 
ATOM      9  C   UNL     1      46.093  21.895  21.307  0.00  0.00    -0.005 A 
ATOM     10  C   UNL     1      45.112  22.831  21.023  0.00  0.00    +0.162 A 
ATOM     13  C   UNL     1      44.044  22.509  20.186  0.00  0.00    +0.033 A 
ATOM     16  C   UNL     1      43.961  21.247  19.621  0.00  0.00    +0.179 A 
ATOM     19  C   UNL     1      44.955  20.300  19.902  0.00  0.00    -0.239 A 
ATOM     20  C   UNL     1      44.905  18.948  19.323  0.00  0.00    +0.429 A 
ATOM     21  O   UNL     1      44.002  18.604  18.581  0.00  0.00    -0.418 OA
ENDROOT
BRANCH   5   4
ATOM      3  C   UNL     1      46.649  16.386  17.923  0.00  0.00    +0.097 A 
ATOM      4  C   UNL     1      46.034  16.648  19.148  0.00  0.00    -0.034 A 
ATOM     22  C   UNL     1      45.458  15.604  19.870  0.00  0.00    +0.031 A 
ATOM     23  C   UNL     1      45.487  14.319  19.368  0.00  0.00    +0.029 A 
ATOM     24  C   UNL     1      46.096  14.058  18.153  0.00  0.00    +0.010 A 
ATOM     25  C   UNL     1      46.677  15.088  17.429  0.00  0.00    +0.089 A 
BRANCH   3   2
ATOM      1  C   UNL     1      48.638  17.535  17.306  0.00  0.00    +0.219 C 
ATOM      2  O   UNL     1      47.219  17.398  17.214  0.00  0.00    -0.318 OA
ENDBRANCH   3   2
BRANCH  25  26
ATOM     26  O   UNL     1      47.274  14.826  16.235  0.00  0.00    -0.484 OA
ATOM     27  H   UNL     1      46.731  14.303  15.629  0.00  0.00    +0.387 HD
ENDBRANCH  25  26
ENDBRANCH   5   4
BRANCH  10  11
ATOM     11  O   UNL     1      45.189  24.073  21.567  0.00  0.00    -0.476 OA
ATOM     12  H   UNL     1      44.643  24.733  21.116  0.00  0.00    +0.401 HD
ENDBRANCH  10  11
BRANCH  13  14
ATOM     14  O   UNL     1      43.084  23.437  19.920  0.00  0.00    -0.472 OA
ATOM     15  H   UNL     1      43.315  24.334  20.200  0.00  0.00    +0.392 HD
ENDBRANCH  13  14
BRANCH  16  17
ATOM     17  O   UNL     1      42.925  20.930  18.803  0.00  0.00    -0.315 OA
ATOM     18  C   UNL     1      41.672  20.639  19.424  0.00  0.00    +0.252 C 
ENDBRANCH  16  17
TORSDOF 6
ENDMDL
MODEL 5
REMARK VINA RESULT:      -5.4      1.521      6.923
REMARK  Name = ZINC14645874
REMARK  8 active torsions:
REMARK  status: ('A' for Active; 'I' for Inactive)
REMARK    1  A    between atoms: C1_1  and  O1_2
REMARK    2  A    between atoms: O1_2  and  C2_3
REMARK    3  A    between atoms: C3_4  and  C8_10
REMARK    4  A    between atoms: C7_8  and  O2_9
REMARK    5  A    between atoms: C12_15  and  O7_24
REMARK    6  A    between atoms: C13_16  and  O6_23
REMARK    7  A    between atoms: C14_17  and  O5_21
REMARK    8  A    between atoms: O5_21  and  C17_22
REMARK                            x       y       z     vdW  Elec       q    Type
REMARK                         _______ _______ _______ _____ _____    ______ ____
ROOT
ATOM      5  C   UNL     1      44.936  18.498  20.837  0.00  0.00    -0.234 A 
ATOM      6  C   UNL     1      45.969  19.262  21.274  0.00  0.00    +0.332 A 
ATOM      7  O   UNL     1      46.015  20.584  21.088  0.00  0.00    -0.216 OA
ATOM      8  C   UNL     1      45.047  21.276  20.455  0.00  0.00    +0.168 A 
ATOM      9  C   UNL     1      45.156  22.650  20.295  0.00  0.00    -0.005 A 
ATOM     10  C   UNL     1      44.160  23.355  19.638  0.00  0.00    +0.162 A 
ATOM     13  C   UNL     1      43.035  22.699  19.140  0.00  0.00    +0.033 A 
ATOM     16  C   UNL     1      42.908  21.327  19.291  0.00  0.00    +0.179 A 
ATOM     19  C   UNL     1      43.916  20.611  19.950  0.00  0.00    -0.239 A 
ATOM     20  C   UNL     1      43.821  19.153  20.131  0.00  0.00    +0.429 A 
ATOM     21  O   UNL     1      42.866  18.519  19.717  0.00  0.00    -0.418 OA
ENDROOT
BRANCH   5   4
ATOM      3  C   UNL     1      45.336  16.163  20.054  0.00  0.00    +0.097 A 
ATOM      4  C   UNL     1      44.927  17.033  21.067  0.00  0.00    -0.034 A 
ATOM     22  C   UNL     1      44.518  16.520  22.296  0.00  0.00    +0.031 A 
ATOM     23  C   UNL     1      44.507  15.156  22.505  0.00  0.00    +0.029 A 
ATOM     24  C   UNL     1      44.911  14.293  21.503  0.00  0.00    +0.010 A 
ATOM     25  C   UNL     1      45.326  14.792  20.278  0.00  0.00    +0.089 A 
BRANCH   3   2
ATOM      1  C   UNL     1      47.151  16.802  18.655  0.00  0.00    +0.219 C 
ATOM      2  O   UNL     1      45.743  16.656  18.853  0.00  0.00    -0.318 OA
ENDBRANCH   3   2
BRANCH  25  26
ATOM     26  O   UNL     1      45.723  13.939  19.295  0.00  0.00    -0.484 OA
ATOM     27  H   UNL     1      45.291  13.074  19.326  0.00  0.00    +0.387 HD
ENDBRANCH  25  26
ENDBRANCH   5   4
BRANCH  10  11
ATOM     11  O   UNL     1      44.279  24.699  19.480  0.00  0.00    -0.476 OA
ATOM     12  H   UNL     1      45.125  25.056  19.782  0.00  0.00    +0.401 HD
ENDBRANCH  10  11
BRANCH  13  14
ATOM     14  O   UNL     1      42.062  23.405  18.502  0.00  0.00    -0.472 OA
ATOM     15  H   UNL     1      42.360  24.254  18.147  0.00  0.00    +0.392 HD
ENDBRANCH  13  14
BRANCH  16  17
ATOM     17  O   UNL     1      41.816  20.684  18.805  0.00  0.00    -0.315 OA
ATOM     18  C   UNL     1      40.588  20.863  19.512  0.00  0.00    +0.252 C 
ENDBRANCH  16  17
TORSDOF 6
ENDMDL
MODEL 6
REMARK VINA RESULT:      -5.4      2.077      6.770
REMARK  Name = ZINC14645874
REMARK  8 active torsions:
REMARK  status: ('A' for Active; 'I' for Inactive)
REMARK    1  A    between atoms: C1_1  and  O1_2
REMARK    2  A    between atoms: O1_2  and  C2_3
REMARK    3  A    between atoms: C3_4  and  C8_10
REMARK    4  A    between atoms: C7_8  and  O2_9
REMARK    5  A    between atoms: C12_15  and  O7_24
REMARK    6  A    between atoms: C13_16  and  O6_23
REMARK    7  A    between atoms: C14_17  and  O5_21
REMARK    8  A    between atoms: O5_21  and  C17_22
REMARK                            x       y       z     vdW  Elec       q    Type
REMARK                         _______ _______ _______ _____ _____    ______ ____
ROOT
ATOM      5  C   UNL     1      46.014  15.820  19.234  0.00  0.00    -0.234 A 
ATOM      6  C   UNL     1      45.553  15.200  20.350  0.00  0.00    +0.332 A 
ATOM      7  O   UNL     1      44.656  15.759  21.165  0.00  0.00    -0.216 OA
ATOM      8  C   UNL     1      44.129  16.983  20.958  0.00  0.00    +0.168 A 
ATOM      9  C   UNL     1      43.200  17.508  21.844  0.00  0.00    -0.005 A 
ATOM     10  C   UNL     1      42.667  18.768  21.628  0.00  0.00    +0.162 A 
ATOM     13  C   UNL     1      43.046  19.519  20.516  0.00  0.00    +0.033 A 
ATOM     16  C   UNL     1      43.972  19.012  19.619  0.00  0.00    +0.179 A 
ATOM     19  C   UNL     1      44.518  17.740  19.838  0.00  0.00    -0.239 A 
ATOM     20  C   UNL     1      45.504  17.164  18.911  0.00  0.00    +0.429 A 
ATOM     21  O   UNL     1      45.881  17.769  17.923  0.00  0.00    -0.418 OA
ENDROOT
BRANCH   5   4
ATOM      3  C   UNL     1      48.376  15.351  18.579  0.00  0.00    +0.097 A 
ATOM      4  C   UNL     1      47.011  15.159  18.357  0.00  0.00    -0.034 A 
ATOM     22  C   UNL     1      46.589  14.339  17.313  0.00  0.00    +0.031 A 
ATOM     23  C   UNL     1      47.518  13.728  16.496  0.00  0.00    +0.029 A 
ATOM     24  C   UNL     1      48.870  13.917  16.714  0.00  0.00    +0.010 A 
ATOM     25  C   UNL     1      49.303  14.727  17.754  0.00  0.00    +0.089 A 
BRANCH   3   2
ATOM      1  C   UNL     1      49.174  17.483  19.267  0.00  0.00    +0.219 C 
ATOM      2  O   UNL     1      48.797  16.145  19.600  0.00  0.00    -0.318 OA
ENDBRANCH   3   2
BRANCH  25  26
ATOM     26  O   UNL     1      50.634  14.910  17.964  0.00  0.00    -0.484 OA
ATOM     27  H   UNL     1      51.201  14.410  17.361  0.00  0.00    +0.387 HD
ENDBRANCH  25  26
ENDBRANCH   5   4
BRANCH  10  11
ATOM     11  O   UNL     1      41.763  19.277  22.505  0.00  0.00    -0.476 OA
ATOM     12  H   UNL     1      41.912  20.206  22.727  0.00  0.00    +0.401 HD
ENDBRANCH  10  11
BRANCH  13  14
ATOM     14  O   UNL     1      42.510  20.754  20.313  0.00  0.00    -0.472 OA
ATOM     15  H   UNL     1      42.227  20.916  19.403  0.00  0.00    +0.392 HD
ENDBRANCH  13  14
BRANCH  16  17
ATOM     17  O   UNL     1      44.347  19.741  18.537  0.00  0.00    -0.315 OA
ATOM     18  C   UNL     1      45.299  20.784  18.756  0.00  0.00    +0.252 C 
ENDBRANCH  16  17
TORSDOF 6
ENDMDL
MODEL 7
REMARK VINA RESULT:      -5.3      2.453      4.341
REMARK  Name = ZINC14645874
REMARK  8 active torsions:
REMARK  status: ('A' for Active; 'I' for Inactive)
REMARK    1  A    between atoms: C1_1  and  O1_2
REMARK    2  A    between atoms: O1_2  and  C2_3
REMARK    3  A    between atoms: C3_4  and  C8_10
REMARK    4  A    between atoms: C7_8  and  O2_9
REMARK    5  A    between atoms: C12_15  and  O7_24
REMARK    6  A    between atoms: C13_16  and  O6_23
REMARK    7  A    between atoms: C14_17  and  O5_21
REMARK    8  A    between atoms: O5_21  and  C17_22
REMARK                            x       y       z     vdW  Elec       q    Type
REMARK                         _______ _______ _______ _____ _____    ______ ____
ROOT
ATOM      5  C   UNL     1      45.389  19.844  19.525  0.00  0.00    -0.234 A 
ATOM      6  C   UNL     1      46.068  20.896  20.050  0.00  0.00    +0.332 A 
ATOM      7  O   UNL     1      47.390  21.031  19.930  0.00  0.00    -0.216 OA
ATOM      8  C   UNL     1      48.169  20.142  19.282  0.00  0.00    +0.168 A 
ATOM      9  C   UNL     1      49.540  20.341  19.192  0.00  0.00    -0.005 A 
ATOM     10  C   UNL     1      50.335  19.421  18.529  0.00  0.00    +0.162 A 
ATOM     13  C   UNL     1      49.772  18.292  17.936  0.00  0.00    +0.033 A 
ATOM     16  C   UNL     1      48.406  18.076  18.013  0.00  0.00    +0.179 A 
ATOM     19  C   UNL     1      47.599  19.002  18.688  0.00  0.00    -0.239 A 
ATOM     20  C   UNL     1      46.144  18.810  18.794  0.00  0.00    +0.429 A 
ATOM     21  O   UNL     1      45.590  17.844  18.301  0.00  0.00    -0.418 OA
ENDROOT
BRANCH   5   4
ATOM      3  C   UNL     1      43.380  19.029  20.760  0.00  0.00    +0.097 A 
ATOM      4  C   UNL     1      43.919  19.736  19.683  0.00  0.00    -0.034 A 
ATOM     22  C   UNL     1      43.070  20.345  18.761  0.00  0.00    +0.031 A 
ATOM     23  C   UNL     1      41.702  20.239  18.908  0.00  0.00    +0.029 A 
ATOM     24  C   UNL     1      41.167  19.539  19.973  0.00  0.00    +0.010 A 
ATOM     25  C   UNL     1      42.001  18.933  20.900  0.00  0.00    +0.089 A 
BRANCH   3   2
ATOM      1  C   UNL     1      44.385  17.024  21.551  0.00  0.00    +0.219 C 
ATOM      2  O   UNL     1      44.202  18.436  21.667  0.00  0.00    -0.318 OA
ENDBRANCH   3   2
BRANCH  25  26
ATOM     26  O   UNL     1      41.470  18.246  21.947  0.00  0.00    -0.484 OA
ATOM     27  H   UNL     1      41.174  17.354  21.722  0.00  0.00    +0.387 HD
ENDBRANCH  25  26
ENDBRANCH   5   4
BRANCH  10  11
ATOM     11  O   UNL     1      51.676  19.621  18.454  0.00  0.00    -0.476 OA
ATOM     12  H   UNL     1      52.070  19.953  19.273  0.00  0.00    +0.401 HD
ENDBRANCH  10  11
BRANCH  13  14
ATOM     14  O   UNL     1      50.565  17.399  17.283  0.00  0.00    -0.472 OA
ATOM     15  H   UNL     1      50.077  16.729  16.784  0.00  0.00    +0.392 HD
ENDBRANCH  13  14
BRANCH  16  17
ATOM     17  O   UNL     1      47.853  16.976  17.440  0.00  0.00    -0.315 OA
ATOM     18  C   UNL     1      48.054  15.728  18.104  0.00  0.00    +0.252 C 
ENDBRANCH  16  17
TORSDOF 6
ENDMDL
MODEL 8
REMARK VINA RESULT:      -5.2      1.919      6.856
REMARK  Name = ZINC14645874
REMARK  8 active torsions:
REMARK  status: ('A' for Active; 'I' for Inactive)
REMARK    1  A    between atoms: C1_1  and  O1_2
REMARK    2  A    between atoms: O1_2  and  C2_3
REMARK    3  A    between atoms: C3_4  and  C8_10
REMARK    4  A    between atoms: C7_8  and  O2_9
REMARK    5  A    between atoms: C12_15  and  O7_24
REMARK    6  A    between atoms: C13_16  and  O6_23
REMARK    7  A    between atoms: C14_17  and  O5_21
REMARK    8  A    between atoms: O5_21  and  C17_22
REMARK                            x       y       z     vdW  Elec       q    Type
REMARK                         _______ _______ _______ _____ _____    ______ ____
ROOT
ATOM      5  C   UNL     1      45.610  18.148  20.398  0.00  0.00    -0.234 A 
ATOM      6  C   UNL     1      46.599  18.736  21.117  0.00  0.00    +0.332 A 
ATOM      7  O   UNL     1      46.664  20.057  21.304  0.00  0.00    -0.216 OA
ATOM      8  C   UNL     1      45.762  20.921  20.799  0.00  0.00    +0.168 A 
ATOM      9  C   UNL     1      45.886  22.284  21.030  0.00  0.00    -0.005 A 
ATOM     10  C   UNL     1      44.958  23.167  20.504  0.00  0.00    +0.162 A 
ATOM     13  C   UNL     1      43.884  22.702  19.747  0.00  0.00    +0.033 A 
ATOM     16  C   UNL     1      43.741  21.344  19.506  0.00  0.00    +0.179 A 
ATOM     19  C   UNL     1      44.682  20.449  20.032  0.00  0.00    -0.239 A 
ATOM     20  C   UNL     1      44.568  19.000  19.799  0.00  0.00    +0.429 A 
ATOM     21  O   UNL     1      43.655  18.529  19.144  0.00  0.00    -0.418 OA
ENDROOT
BRANCH   5   4
ATOM      3  C   UNL     1      45.109  15.854  21.243  0.00  0.00    +0.097 A 
ATOM      4  C   UNL     1      45.578  16.676  20.217  0.00  0.00    -0.034 A 
ATOM     22  C   UNL     1      46.008  16.110  19.019  0.00  0.00    +0.031 A 
ATOM     23  C   UNL     1      45.982  14.739  18.854  0.00  0.00    +0.029 A 
ATOM     24  C   UNL     1      45.519  13.924  19.871  0.00  0.00    +0.010 A 
ATOM     25  C   UNL     1      45.082  14.476  21.065  0.00  0.00    +0.089 A 
BRANCH   3   2
ATOM      1  C   UNL     1      43.296  16.739  22.503  0.00  0.00    +0.219 C 
ATOM      2  O   UNL     1      44.681  16.399  22.414  0.00  0.00    -0.318 OA
ENDBRANCH   3   2
BRANCH  25  26
ATOM     26  O   UNL     1      44.627  13.670  22.061  0.00  0.00    -0.484 OA
ATOM     27  H   UNL     1      45.167  13.692  22.863  0.00  0.00    +0.387 HD
ENDBRANCH  25  26
ENDBRANCH   5   4
BRANCH  10  11
ATOM     11  O   UNL     1      45.093  24.499  20.730  0.00  0.00    -0.476 OA
ATOM     12  H   UNL     1      45.646  24.713  21.494  0.00  0.00    +0.401 HD
ENDBRANCH  10  11
BRANCH  13  14
ATOM     14  O   UNL     1      42.976  23.581  19.241  0.00  0.00    -0.472 OA
ATOM     15  H   UNL     1      43.087  23.762  18.297  0.00  0.00    +0.392 HD
ENDBRANCH  13  14
BRANCH  16  17
ATOM     17  O   UNL     1      42.699  20.887  18.766  0.00  0.00    -0.315 OA
ATOM     18  C   UNL     1      41.408  20.915  19.377  0.00  0.00    +0.252 C 
ENDBRANCH  16  17
TORSDOF 6
ENDMDL
MODEL 9
REMARK VINA RESULT:      -5.2      3.184      7.345
REMARK  Name = ZINC14645874
REMARK  8 active torsions:
REMARK  status: ('A' for Active; 'I' for Inactive)
REMARK    1  A    between atoms: C1_1  and  O1_2
REMARK    2  A    between atoms: O1_2  and  C2_3
REMARK    3  A    between atoms: C3_4  and  C8_10
REMARK    4  A    between atoms: C7_8  and  O2_9
REMARK    5  A    between atoms: C12_15  and  O7_24
REMARK    6  A    between atoms: C13_16  and  O6_23
REMARK    7  A    between atoms: C14_17  and  O5_21
REMARK    8  A    between atoms: O5_21  and  C17_22
REMARK                            x       y       z     vdW  Elec       q    Type
REMARK                         _______ _______ _______ _____ _____    ______ ____
ROOT
ATOM      5  C   UNL     1      48.919  20.229  19.670  0.00  0.00    -0.234 A 
ATOM      6  C   UNL     1      49.267  20.963  20.758  0.00  0.00    +0.332 A 
ATOM      7  O   UNL     1      48.389  21.711  21.431  0.00  0.00    -0.216 OA
ATOM      8  C   UNL     1      47.087  21.807  21.094  0.00  0.00    +0.168 A 
ATOM      9  C   UNL     1      46.225  22.602  21.836  0.00  0.00    -0.005 A 
ATOM     10  C   UNL     1      44.890  22.701  21.482  0.00  0.00    +0.162 A 
ATOM     13  C   UNL     1      44.391  21.996  20.387  0.00  0.00    +0.033 A 
ATOM     16  C   UNL     1      45.235  21.195  19.634  0.00  0.00    +0.179 A 
ATOM     19  C   UNL     1      46.588  21.099  19.986  0.00  0.00    -0.239 A 
ATOM     20  C   UNL     1      47.518  20.260  19.214  0.00  0.00    +0.429 A 
ATOM     21  O   UNL     1      47.148  19.622  18.244  0.00  0.00    -0.418 OA
ENDROOT
BRANCH   5   4
ATOM      3  C   UNL     1      50.120  18.073  19.300  0.00  0.00    +0.097 A 
ATOM      4  C   UNL     1      49.929  19.412  18.954  0.00  0.00    -0.034 A 
ATOM     22  C   UNL     1      50.685  19.976  17.928  0.00  0.00    +0.031 A 
ATOM     23  C   UNL     1      51.627  19.215  17.266  0.00  0.00    +0.029 A 
ATOM     24  C   UNL     1      51.818  17.889  17.608  0.00  0.00    +0.010 A 
ATOM     25  C   UNL     1      51.068  17.315  18.623  0.00  0.00    +0.089 A 
BRANCH   3   2
ATOM      1  C   UNL     1      48.269  16.707  19.904  0.00  0.00    +0.219 C 
ATOM      2  O   UNL     1      49.382  17.513  20.296  0.00  0.00    -0.318 OA
ENDBRANCH   3   2
BRANCH  25  26
ATOM     26  O   UNL     1      51.259  16.010  18.956  0.00  0.00    -0.484 OA
ATOM     27  H   UNL     1      50.904  15.769  19.823  0.00  0.00    +0.387 HD
ENDBRANCH  25  26
ENDBRANCH   5   4
BRANCH  10  11
ATOM     11  O   UNL     1      44.056  23.488  22.210  0.00  0.00    -0.476 OA
ATOM     12  H   UNL     1      43.994  24.397  21.886  0.00  0.00    +0.401 HD
ENDBRANCH  10  11
BRANCH  13  14
ATOM     14  O   UNL     1      43.075  22.098  20.053  0.00  0.00    -0.472 OA
ATOM     15  H   UNL     1      42.619  21.247  19.985  0.00  0.00    +0.392 HD
ENDBRANCH  13  14
BRANCH  16  17
ATOM     17  O   UNL     1      44.755  20.511  18.564  0.00  0.00    -0.315 OA
ATOM     18  C   UNL     1      43.931  19.376  18.837  0.00  0.00    +0.252 C 
ENDBRANCH  16  17
TORSDOF 6
ENDMDL
