MODEL 1
REMARK VINA RESULT:      -6.4      0.000      0.000
REMARK  Name = ZINC95485890
REMARK  7 active torsions:
REMARK  status: ('A' for Active; 'I' for Inactive)
REMARK    1  A    between atoms: C1_1  and  C2_2
REMARK    2  A    between atoms: C2_2  and  O2_4
REMARK    3  A    between atoms: O2_4  and  C3_5
REMARK    4  A    between atoms: C3_5  and  C4_6
REMARK    5  A    between atoms: C5_8  and  C25_39
REMARK    6  A    between atoms: C14_24  and  C24_38
REMARK    7  A    between atoms: C17_27  and  C20_33
REMARK                            x       y       z     vdW  Elec       q    Type
REMARK                         _______ _______ _______ _____ _____    ______ ____
ROOT
ATOM      5  C   UNL     1      48.442  16.914  19.469  0.00  0.00    +0.044 C 
ATOM      6  C   UNL     1      49.008  17.135  18.056  0.00  0.00    -0.076 C 
ATOM      7  C   UNL     1      47.924  17.415  17.013  0.00  0.00    +0.080 C 
ATOM      8  C   UNL     1      49.995  18.272  18.256  0.00  0.00    -0.026 C 
ATOM      9  C   UNL     1      50.655  18.686  16.924  0.00  0.00    +0.002 C 
ATOM     10  C   UNL     1      51.220  20.005  17.371  0.00  0.00    +0.501 C 
ATOM     11  O   UNL     1      50.409  20.503  18.366  0.00  0.00    -0.328 OA
ATOM     12  O   UNL     1      52.214  20.538  16.933  0.00  0.00    -0.427 OA
ATOM     13  C   UNL     1      51.534  17.541  16.564  0.00  0.00    +0.104 C 
ATOM     14  C   UNL     1      51.142  16.303  16.910  0.00  0.00    -0.084 C 
ATOM     15  C   UNL     1      49.323  19.601  18.620  0.00  0.00    +0.178 C 
ATOM     16  C   UNL     1      48.823  19.427  20.045  0.00  0.00    +0.243 C 
ATOM     17  O   UNL     1      47.900  20.517  20.309  0.00  0.00    -0.354 OA
ATOM     18  C   UNL     1      46.561  20.084  20.034  0.00  0.00    +0.162 C 
ATOM     19  C   UNL     1      45.780  20.902  18.999  0.00  0.00    +0.051 C 
ATOM     20  C   UNL     1      44.890  19.791  18.380  0.00  0.00    +0.108 C 
ATOM     26  C   UNL     1      45.679  18.514  18.582  0.00  0.00    +0.046 C 
ATOM     27  C   UNL     1      46.656  18.692  19.411  0.00  0.00    -0.177 C 
ATOM     28  C   UNL     1      49.938  15.988  17.663  0.00  0.00    +0.386 C 
ATOM     29  O   UNL     1      49.668  14.842  17.955  0.00  0.00    -0.394 OA
ATOM     30  C   UNL     1      47.909  18.180  20.088  0.00  0.00    -0.008 C 
ATOM     31  C   UNL     1      47.569  17.903  21.553  0.00  0.00    +0.066 C 
ENDROOT
BRANCH  20  21
ATOM     21  C   UNL     1      43.568  19.711  19.100  0.00  0.00    -0.171 A 
ATOM     22  C   UNL     1      43.265  18.901  20.218  0.00  0.00    -0.058 A 
ATOM     23  C   UNL     1      41.979  19.142  20.536  0.00  0.00    +0.166 A 
ATOM     24  O   UNL     1      41.492  20.048  19.674  0.00  0.00    -0.174 OA
ATOM     25  C   UNL     1      42.451  20.402  18.804  0.00  0.00    +0.163 A 
ENDBRANCH  20  21
BRANCH   5   4
ATOM      4  C   UNL     1      47.308  15.889  19.392  0.00  0.00    +0.205 C 
BRANCH   4   3
ATOM      3  O   UNL     1      47.500  14.890  20.395  0.00  0.00    -0.310 OA
BRANCH   3   2
ATOM      1  C   UNL     1      45.088  15.142  20.860  0.00  0.00    +0.150 C 
ATOM      2  C   UNL     1      46.401  14.414  21.001  0.00  0.00    +0.454 C 
ATOM     32  O   UNL     1      46.463  13.402  21.659  0.00  0.00    -0.521 OA
ENDBRANCH   3   2
ENDBRANCH   4   3
ENDBRANCH   5   4
TORSDOF 4
ENDMDL
MODEL 2
REMARK VINA RESULT:      -6.2      1.955      6.275
REMARK  Name = ZINC95485890
REMARK  7 active torsions:
REMARK  status: ('A' for Active; 'I' for Inactive)
REMARK    1  A    between atoms: C1_1  and  C2_2
REMARK    2  A    between atoms: C2_2  and  O2_4
REMARK    3  A    between atoms: O2_4  and  C3_5
REMARK    4  A    between atoms: C3_5  and  C4_6
REMARK    5  A    between atoms: C5_8  and  C25_39
REMARK    6  A    between atoms: C14_24  and  C24_38
REMARK    7  A    between atoms: C17_27  and  C20_33
REMARK                            x       y       z     vdW  Elec       q    Type
REMARK                         _______ _______ _______ _____ _____    ______ ____
ROOT
ATOM      5  C   UNL     1      47.002  15.313  18.834  0.00  0.00    +0.044 C 
ATOM      6  C   UNL     1      46.758  15.268  20.352  0.00  0.00    -0.076 C 
ATOM      7  C   UNL     1      47.849  15.978  21.156  0.00  0.00    +0.080 C 
ATOM      8  C   UNL     1      45.375  15.879  20.495  0.00  0.00    -0.026 C 
ATOM      9  C   UNL     1      44.949  15.970  21.976  0.00  0.00    +0.002 C 
ATOM     10  C   UNL     1      43.802  16.926  21.806  0.00  0.00    +0.501 C 
ATOM     11  O   UNL     1      44.068  17.723  20.716  0.00  0.00    -0.328 OA
ATOM     12  O   UNL     1      42.817  16.985  22.505  0.00  0.00    -0.427 OA
ATOM     13  C   UNL     1      44.735  14.558  22.396  0.00  0.00    +0.104 C 
ATOM     14  C   UNL     1      45.504  13.605  21.843  0.00  0.00    -0.084 C 
ATOM     15  C   UNL     1      45.330  17.369  20.136  0.00  0.00    +0.178 C 
ATOM     16  C   UNL     1      45.495  17.428  18.626  0.00  0.00    +0.243 C 
ATOM     17  O   UNL     1      45.793  18.808  18.284  0.00  0.00    -0.354 OA
ATOM     18  C   UNL     1      47.214  18.983  18.211  0.00  0.00    +0.162 C 
ATOM     19  C   UNL     1      47.817  20.052  19.131  0.00  0.00    +0.051 C 
ATOM     20  C   UNL     1      49.206  19.421  19.417  0.00  0.00    +0.108 C 
ATOM     26  C   UNL     1      48.988  17.931  19.259  0.00  0.00    +0.046 C 
ATOM     27  C   UNL     1      47.855  17.680  18.688  0.00  0.00    -0.177 C 
ATOM     28  C   UNL     1      46.508  13.834  20.815  0.00  0.00    +0.386 C 
ATOM     29  O   UNL     1      47.145  12.911  20.351  0.00  0.00    -0.394 OA
ATOM     30  C   UNL     1      46.799  16.687  18.252  0.00  0.00    -0.008 C 
ATOM     31  C   UNL     1      46.856  16.585  16.727  0.00  0.00    +0.066 C 
ENDROOT
BRANCH  20  21
ATOM     21  C   UNL     1      50.225  19.913  18.421  0.00  0.00    -0.171 A 
ATOM     22  C   UNL     1      50.959  19.123  17.508  0.00  0.00    -0.058 A 
ATOM     23  C   UNL     1      51.749  19.962  16.813  0.00  0.00    +0.166 A 
ATOM     24  O   UNL     1      51.533  21.211  17.257  0.00  0.00    -0.174 OA
ATOM     25  C   UNL     1      50.606  21.188  18.228  0.00  0.00    +0.163 A 
ENDBRANCH  20  21
BRANCH   5   4
ATOM      4  C   UNL     1      48.438  14.866  18.552  0.00  0.00    +0.205 C 
BRANCH   4   3
ATOM      3  O   UNL     1      48.465  14.070  17.365  0.00  0.00    -0.310 OA
BRANCH   3   2
ATOM      1  C   UNL     1      50.621  15.163  16.862  0.00  0.00    +0.150 C 
ATOM      2  C   UNL     1      49.606  14.068  16.658  0.00  0.00    +0.454 C 
ATOM     32  O   UNL     1      49.819  13.188  15.857  0.00  0.00    -0.521 OA
ENDBRANCH   3   2
ENDBRANCH   4   3
ENDBRANCH   5   4
TORSDOF 4
ENDMDL
MODEL 3
REMARK VINA RESULT:      -6.2      2.128      3.225
REMARK  Name = ZINC95485890
REMARK  7 active torsions:
REMARK  status: ('A' for Active; 'I' for Inactive)
REMARK    1  A    between atoms: C1_1  and  C2_2
REMARK    2  A    between atoms: C2_2  and  O2_4
REMARK    3  A    between atoms: O2_4  and  C3_5
REMARK    4  A    between atoms: C3_5  and  C4_6
REMARK    5  A    between atoms: C5_8  and  C25_39
REMARK    6  A    between atoms: C14_24  and  C24_38
REMARK    7  A    between atoms: C17_27  and  C20_33
REMARK                            x       y       z     vdW  Elec       q    Type
REMARK                         _______ _______ _______ _____ _____    ______ ____
ROOT
ATOM      5  C   UNL     1      49.290  18.502  19.088  0.00  0.00    +0.044 C 
ATOM      6  C   UNL     1      50.224  19.697  18.833  0.00  0.00    -0.076 C 
ATOM      7  C   UNL     1      49.523  20.872  18.150  0.00  0.00    +0.080 C 
ATOM      8  C   UNL     1      50.767  20.009  20.217  0.00  0.00    -0.026 C 
ATOM      9  C   UNL     1      51.711  21.230  20.191  0.00  0.00    +0.002 C 
ATOM     10  C   UNL     1      51.741  21.503  21.669  0.00  0.00    +0.501 C 
ATOM     11  O   UNL     1      50.544  21.085  22.206  0.00  0.00    -0.328 OA
ATOM     12  O   UNL     1      52.656  22.005  22.280  0.00  0.00    -0.427 OA
ATOM     13  C   UNL     1      52.918  20.760  19.459  0.00  0.00    +0.104 C 
ATOM     14  C   UNL     1      52.757  19.854  18.479  0.00  0.00    -0.084 C 
ATOM     15  C   UNL     1      49.701  20.545  21.179  0.00  0.00    +0.178 C 
ATOM     16  C   UNL     1      48.809  19.356  21.502  0.00  0.00    +0.243 C 
ATOM     17  O   UNL     1      47.609  19.881  22.130  0.00  0.00    -0.354 OA
ATOM     18  C   UNL     1      46.596  20.072  21.133  0.00  0.00    +0.162 C 
ATOM     19  C   UNL     1      46.031  21.491  20.999  0.00  0.00    +0.051 C 
ATOM     20  C   UNL     1      45.712  21.521  19.481  0.00  0.00    +0.108 C 
ATOM     26  C   UNL     1      46.680  20.532  18.868  0.00  0.00    +0.046 C 
ATOM     27  C   UNL     1      47.243  19.801  19.775  0.00  0.00    -0.177 C 
ATOM     28  C   UNL     1      51.489  19.246  18.104  0.00  0.00    +0.386 C 
ATOM     29  O   UNL     1      51.434  18.416  17.221  0.00  0.00    -0.394 OA
ATOM     30  C   UNL     1      48.280  18.773  20.172  0.00  0.00    -0.008 C 
ATOM     31  C   UNL     1      47.547  17.470  20.493  0.00  0.00    +0.066 C 
ENDROOT
BRANCH  20  21
ATOM     21  C   UNL     1      44.289  21.089  19.231  0.00  0.00    -0.171 A 
ATOM     22  C   UNL     1      43.121  21.831  19.514  0.00  0.00    -0.058 A 
ATOM     23  C   UNL     1      42.076  21.074  19.135  0.00  0.00    +0.166 A 
ATOM     24  O   UNL     1      42.548  19.918  18.640  0.00  0.00    -0.174 OA
ATOM     25  C   UNL     1      43.890  19.923  18.690  0.00  0.00    +0.163 A 
ENDBRANCH  20  21
BRANCH   5   4
ATOM      4  C   UNL     1      48.545  18.174  17.792  0.00  0.00    +0.205 C 
BRANCH   4   3
ATOM      3  O   UNL     1      48.789  16.812  17.434  0.00  0.00    -0.310 OA
BRANCH   3   2
ATOM      1  C   UNL     1      46.343  16.676  17.122  0.00  0.00    +0.150 C 
ATOM      2  C   UNL     1      47.725  16.075  17.080  0.00  0.00    +0.454 C 
ATOM     32  O   UNL     1      47.874  14.928  16.727  0.00  0.00    -0.521 OA
ENDBRANCH   3   2
ENDBRANCH   4   3
ENDBRANCH   5   4
TORSDOF 4
ENDMDL
MODEL 4
REMARK VINA RESULT:      -6.0      2.176      6.899
REMARK  Name = ZINC95485890
REMARK  7 active torsions:
REMARK  status: ('A' for Active; 'I' for Inactive)
REMARK    1  A    between atoms: C1_1  and  C2_2
REMARK    2  A    between atoms: C2_2  and  O2_4
REMARK    3  A    between atoms: O2_4  and  C3_5
REMARK    4  A    between atoms: C3_5  and  C4_6
REMARK    5  A    between atoms: C5_8  and  C25_39
REMARK    6  A    between atoms: C14_24  and  C24_38
REMARK    7  A    between atoms: C17_27  and  C20_33
REMARK                            x       y       z     vdW  Elec       q    Type
REMARK                         _______ _______ _______ _____ _____    ______ ____
ROOT
ATOM      5  C   UNL     1      46.608  20.005  20.967  0.00  0.00    +0.044 C 
ATOM      6  C   UNL     1      45.852  20.980  20.049  0.00  0.00    -0.076 C 
ATOM      7  C   UNL     1      46.391  20.994  18.617  0.00  0.00    +0.080 C 
ATOM      8  C   UNL     1      44.410  20.521  20.173  0.00  0.00    -0.026 C 
ATOM      9  C   UNL     1      43.473  21.358  19.276  0.00  0.00    +0.002 C 
ATOM     10  C   UNL     1      42.278  20.447  19.314  0.00  0.00    +0.501 C 
ATOM     11  O   UNL     1      42.728  19.157  19.484  0.00  0.00    -0.328 OA
ATOM     12  O   UNL     1      41.122  20.787  19.211  0.00  0.00    -0.427 OA
ATOM     13  C   UNL     1      43.448  22.705  19.907  0.00  0.00    +0.104 C 
ATOM     14  C   UNL     1      44.560  23.139  20.527  0.00  0.00    -0.084 C 
ATOM     15  C   UNL     1      44.160  19.137  19.562  0.00  0.00    +0.178 C 
ATOM     16  C   UNL     1      44.838  18.151  20.500  0.00  0.00    +0.243 C 
ATOM     17  O   UNL     1      44.917  16.881  19.799  0.00  0.00    -0.354 OA
ATOM     18  C   UNL     1      46.190  16.777  19.147  0.00  0.00    +0.162 C 
ATOM     19  C   UNL     1      46.164  16.559  17.630  0.00  0.00    +0.051 C 
ATOM     20  C   UNL     1      47.462  17.304  17.219  0.00  0.00    +0.108 C 
ATOM     26  C   UNL     1      47.660  18.349  18.297  0.00  0.00    +0.046 C 
ATOM     27  C   UNL     1      46.895  18.123  19.316  0.00  0.00    -0.177 C 
ATOM     28  C   UNL     1      45.785  22.371  20.679  0.00  0.00    +0.386 C 
ATOM     29  O   UNL     1      46.738  22.829  21.275  0.00  0.00    -0.394 OA
ATOM     30  C   UNL     1      46.321  18.561  20.646  0.00  0.00    -0.008 C 
ATOM     31  C   UNL     1      46.942  17.685  21.734  0.00  0.00    +0.066 C 
ENDROOT
BRANCH  20  21
ATOM     21  C   UNL     1      48.630  16.352  17.188  0.00  0.00    -0.171 A 
ATOM     22  C   UNL     1      48.577  14.961  16.945  0.00  0.00    -0.058 A 
ATOM     23  C   UNL     1      49.842  14.506  17.009  0.00  0.00    +0.166 A 
ATOM     24  O   UNL     1      50.652  15.542  17.277  0.00  0.00    -0.174 OA
ATOM     25  C   UNL     1      49.924  16.666  17.381  0.00  0.00    +0.163 A 
ENDBRANCH  20  21
BRANCH   5   4
ATOM      4  C   UNL     1      48.111  20.253  20.821  0.00  0.00    +0.205 C 
BRANCH   4   3
ATOM      3  O   UNL     1      48.679  20.509  22.107  0.00  0.00    -0.310 OA
BRANCH   3   2
ATOM      1  C   UNL     1      50.959  21.417  22.373  0.00  0.00    +0.150 C 
ATOM      2  C   UNL     1      49.991  20.268  22.253  0.00  0.00    +0.454 C 
ATOM     32  O   UNL     1      50.397  19.130  22.288  0.00  0.00    -0.521 OA
ENDBRANCH   3   2
ENDBRANCH   4   3
ENDBRANCH   5   4
TORSDOF 4
ENDMDL
MODEL 5
REMARK VINA RESULT:      -6.0      2.300      6.450
REMARK  Name = ZINC95485890
REMARK  7 active torsions:
REMARK  status: ('A' for Active; 'I' for Inactive)
REMARK    1  A    between atoms: C1_1  and  C2_2
REMARK    2  A    between atoms: C2_2  and  O2_4
REMARK    3  A    between atoms: O2_4  and  C3_5
REMARK    4  A    between atoms: C3_5  and  C4_6
REMARK    5  A    between atoms: C5_8  and  C25_39
REMARK    6  A    between atoms: C14_24  and  C24_38
REMARK    7  A    between atoms: C17_27  and  C20_33
REMARK                            x       y       z     vdW  Elec       q    Type
REMARK                         _______ _______ _______ _____ _____    ______ ____
ROOT
ATOM      5  C   UNL     1      45.249  16.922  20.551  0.00  0.00    +0.044 C 
ATOM      6  C   UNL     1      44.303  17.974  21.154  0.00  0.00    -0.076 C 
ATOM      7  C   UNL     1      45.024  18.992  22.040  0.00  0.00    +0.080 C 
ATOM      8  C   UNL     1      43.631  18.572  19.930  0.00  0.00    -0.026 C 
ATOM      9  C   UNL     1      42.654  19.703  20.319  0.00  0.00    +0.002 C 
ATOM     10  C   UNL     1      42.485  20.313  18.955  0.00  0.00    +0.501 C 
ATOM     11  O   UNL     1      43.643  20.094  18.243  0.00  0.00    -0.328 OA
ATOM     12  O   UNL     1      41.504  20.895  18.554  0.00  0.00    -0.427 OA
ATOM     13  C   UNL     1      41.532  19.013  21.011  0.00  0.00    +0.104 C 
ATOM     14  C   UNL     1      41.808  17.912  21.731  0.00  0.00    -0.084 C 
ATOM     15  C   UNL     1      44.590  19.374  19.043  0.00  0.00    +0.178 C 
ATOM     16  C   UNL     1      45.488  18.341  18.379  0.00  0.00    +0.243 C 
ATOM     17  O   UNL     1      46.610  19.060  17.802  0.00  0.00    -0.354 OA
ATOM     18  C   UNL     1      47.700  19.065  18.733  0.00  0.00    +0.162 C 
ATOM     19  C   UNL     1      48.229  20.441  19.156  0.00  0.00    +0.051 C 
ATOM     20  C   UNL     1      48.680  20.132  20.608  0.00  0.00    +0.108 C 
ATOM     26  C   UNL     1      47.801  18.978  21.043  0.00  0.00    +0.046 C 
ATOM     27  C   UNL     1      47.185  18.451  20.034  0.00  0.00    -0.177 C 
ATOM     28  C   UNL     1      43.122  17.300  21.851  0.00  0.00    +0.386 C 
ATOM     29  O   UNL     1      43.281  16.290  22.505  0.00  0.00    -0.394 OA
ATOM     30  C   UNL     1      46.151  17.492  19.486  0.00  0.00    -0.008 C 
ATOM     31  C   UNL     1      46.894  16.340  18.809  0.00  0.00    +0.066 C 
ENDROOT
BRANCH  20  21
ATOM     21  C   UNL     1      50.132  19.727  20.637  0.00  0.00    -0.171 A 
ATOM     22  C   UNL     1      50.719  18.755  21.478  0.00  0.00    -0.058 A 
ATOM     23  C   UNL     1      52.029  18.714  21.171  0.00  0.00    +0.166 A 
ATOM     24  O   UNL     1      52.263  19.605  20.194  0.00  0.00    -0.174 OA
ATOM     25  C   UNL     1      51.116  20.219  19.862  0.00  0.00    +0.163 A 
ENDBRANCH  20  21
BRANCH   5   4
ATOM      4  C   UNL     1      46.115  16.339  21.670  0.00  0.00    +0.205 C 
BRANCH   4   3
ATOM      3  O   UNL     1      45.946  14.921  21.712  0.00  0.00    -0.310 OA
BRANCH   3   2
ATOM      1  C   UNL     1      48.407  14.839  21.901  0.00  0.00    +0.150 C 
ATOM      2  C   UNL     1      47.061  14.175  21.763  0.00  0.00    +0.454 C 
ATOM     32  O   UNL     1      46.986  12.970  21.698  0.00  0.00    -0.521 OA
ENDBRANCH   3   2
ENDBRANCH   4   3
ENDBRANCH   5   4
TORSDOF 4
ENDMDL
MODEL 6
REMARK VINA RESULT:      -5.8      2.231      6.919
REMARK  Name = ZINC95485890
REMARK  7 active torsions:
REMARK  status: ('A' for Active; 'I' for Inactive)
REMARK    1  A    between atoms: C1_1  and  C2_2
REMARK    2  A    between atoms: C2_2  and  O2_4
REMARK    3  A    between atoms: O2_4  and  C3_5
REMARK    4  A    between atoms: C3_5  and  C4_6
REMARK    5  A    between atoms: C5_8  and  C25_39
REMARK    6  A    between atoms: C14_24  and  C24_38
REMARK    7  A    between atoms: C17_27  and  C20_33
REMARK                            x       y       z     vdW  Elec       q    Type
REMARK                         _______ _______ _______ _____ _____    ______ ____
ROOT
ATOM      5  C   UNL     1      47.949  18.045  19.453  0.00  0.00    +0.044 C 
ATOM      6  C   UNL     1      46.623  18.725  19.074  0.00  0.00    -0.076 C 
ATOM      7  C   UNL     1      46.117  18.322  17.687  0.00  0.00    +0.080 C 
ATOM      8  C   UNL     1      45.700  18.336  20.215  0.00  0.00    -0.026 C 
ATOM      9  C   UNL     1      44.275  18.891  20.003  0.00  0.00    +0.002 C 
ATOM     10  C   UNL     1      43.565  18.042  21.020  0.00  0.00    +0.501 C 
ATOM     11  O   UNL     1      44.246  16.851  21.132  0.00  0.00    -0.328 OA
ATOM     12  O   UNL     1      42.569  18.351  21.632  0.00  0.00    -0.427 OA
ATOM     13  C   UNL     1      44.413  20.363  20.173  0.00  0.00    +0.104 C 
ATOM     14  C   UNL     1      45.563  20.944  19.789  0.00  0.00    -0.084 C 
ATOM     15  C   UNL     1      45.375  16.838  20.249  0.00  0.00    +0.178 C 
ATOM     16  C   UNL     1      46.658  16.154  20.695  0.00  0.00    +0.243 C 
ATOM     17  O   UNL     1      46.503  14.737  20.421  0.00  0.00    -0.354 OA
ATOM     18  C   UNL     1      47.066  14.436  19.137  0.00  0.00    +0.162 C 
ATOM     19  C   UNL     1      46.124  13.793  18.113  0.00  0.00    +0.051 C 
ATOM     20  C   UNL     1      46.705  14.375  16.796  0.00  0.00    +0.108 C 
ATOM     26  C   UNL     1      47.347  15.682  17.209  0.00  0.00    +0.046 C 
ATOM     27  C   UNL     1      47.459  15.766  18.495  0.00  0.00    -0.177 C 
ATOM     28  C   UNL     1      46.720  20.238  19.262  0.00  0.00    +0.386 C 
ATOM     29  O   UNL     1      47.731  20.838  18.960  0.00  0.00    -0.394 OA
ATOM     30  C   UNL     1      47.791  16.573  19.732  0.00  0.00    -0.008 C 
ATOM     31  C   UNL     1      49.107  16.039  20.299  0.00  0.00    +0.066 C 
ENDROOT
BRANCH  20  21
ATOM     21  C   UNL     1      47.736  13.442  16.216  0.00  0.00    -0.171 A 
ATOM     22  C   UNL     1      47.514  12.126  15.750  0.00  0.00    -0.058 A 
ATOM     23  C   UNL     1      48.701  11.660  15.318  0.00  0.00    +0.166 A 
ATOM     24  O   UNL     1      49.623  12.619  15.498  0.00  0.00    -0.174 OA
ATOM     25  C   UNL     1      49.043  13.704  16.037  0.00  0.00    +0.163 A 
ENDBRANCH  20  21
BRANCH   5   4
ATOM      4  C   UNL     1      48.942  18.224  18.302  0.00  0.00    +0.205 C 
BRANCH   4   3
ATOM      3  O   UNL     1      50.125  18.862  18.788  0.00  0.00    -0.310 OA
BRANCH   3   2
ATOM      1  C   UNL     1      51.011  20.952  17.816  0.00  0.00    +0.150 C 
ATOM      2  C   UNL     1      50.919  19.449  17.879  0.00  0.00    +0.454 C 
ATOM     32  O   UNL     1      51.561  18.772  17.110  0.00  0.00    -0.521 OA
ENDBRANCH   3   2
ENDBRANCH   4   3
ENDBRANCH   5   4
TORSDOF 4
ENDMDL
MODEL 7
REMARK VINA RESULT:      -5.6      2.791      6.263
REMARK  Name = ZINC95485890
REMARK  7 active torsions:
REMARK  status: ('A' for Active; 'I' for Inactive)
REMARK    1  A    between atoms: C1_1  and  C2_2
REMARK    2  A    between atoms: C2_2  and  O2_4
REMARK    3  A    between atoms: O2_4  and  C3_5
REMARK    4  A    between atoms: C3_5  and  C4_6
REMARK    5  A    between atoms: C5_8  and  C25_39
REMARK    6  A    between atoms: C14_24  and  C24_38
REMARK    7  A    between atoms: C17_27  and  C20_33
REMARK                            x       y       z     vdW  Elec       q    Type
REMARK                         _______ _______ _______ _____ _____    ______ ____
ROOT
ATOM      5  C   UNL     1      48.163  14.735  19.115  0.00  0.00    +0.044 C 
ATOM      6  C   UNL     1      47.448  14.371  17.804  0.00  0.00    -0.076 C 
ATOM      7  C   UNL     1      47.270  15.567  16.865  0.00  0.00    +0.080 C 
ATOM      8  C   UNL     1      48.310  13.255  17.241  0.00  0.00    -0.026 C 
ATOM      9  C   UNL     1      47.780  12.766  15.876  0.00  0.00    +0.002 C 
ATOM     10  C   UNL     1      49.002  12.008  15.435  0.00  0.00    +0.501 C 
ATOM     11  O   UNL     1      50.103  12.604  16.007  0.00  0.00    -0.328 OA
ATOM     12  O   UNL     1      49.015  11.045  14.706  0.00  0.00    -0.427 OA
ATOM     13  C   UNL     1      46.502  12.072  16.192  0.00  0.00    +0.104 C 
ATOM     14  C   UNL     1      45.764  12.531  17.218  0.00  0.00    -0.084 C 
ATOM     15  C   UNL     1      49.703  13.725  16.808  0.00  0.00    +0.178 C 
ATOM     16  C   UNL     1      50.452  14.018  18.098  0.00  0.00    +0.243 C 
ATOM     17  O   UNL     1      51.639  14.774  17.739  0.00  0.00    -0.354 OA
ATOM     18  C   UNL     1      51.363  16.177  17.855  0.00  0.00    +0.162 C 
ATOM     19  C   UNL     1      51.572  17.019  16.591  0.00  0.00    +0.051 C 
ATOM     20  C   UNL     1      50.478  18.101  16.794  0.00  0.00    +0.108 C 
ATOM     26  C   UNL     1      49.426  17.424  17.647  0.00  0.00    +0.046 C 
ATOM     27  C   UNL     1      49.870  16.319  18.153  0.00  0.00    -0.177 C 
ATOM     28  C   UNL     1      46.141  13.633  18.090  0.00  0.00    +0.386 C 
ATOM     29  O   UNL     1      45.426  13.970  19.011  0.00  0.00    -0.394 OA
ATOM     30  C   UNL     1      49.626  15.036  18.917  0.00  0.00    -0.008 C 
ATOM     31  C   UNL     1      50.286  15.176  20.289  0.00  0.00    +0.066 C 
ENDROOT
BRANCH  20  21
ATOM     21  C   UNL     1      51.045  19.300  17.510  0.00  0.00    -0.171 A 
ATOM     22  C   UNL     1      50.344  20.180  18.365  0.00  0.00    -0.058 A 
ATOM     23  C   UNL     1      51.229  21.102  18.786  0.00  0.00    +0.166 A 
ATOM     24  O   UNL     1      52.421  20.828  18.232  0.00  0.00    -0.174 OA
ATOM     25  C   UNL     1      52.318  19.733  17.462  0.00  0.00    +0.163 A 
ENDBRANCH  20  21
BRANCH   5   4
ATOM      4  C   UNL     1      47.485  15.966  19.722  0.00  0.00    +0.205 C 
BRANCH   4   3
ATOM      3  O   UNL     1      46.993  15.644  21.025  0.00  0.00    -0.310 OA
BRANCH   3   2
ATOM      1  C   UNL     1      44.674  16.437  21.331  0.00  0.00    +0.150 C 
ATOM      2  C   UNL     1      46.155  16.525  21.594  0.00  0.00    +0.454 C 
ATOM     32  O   UNL     1      46.589  17.390  22.318  0.00  0.00    -0.521 OA
ENDBRANCH   3   2
ENDBRANCH   4   3
ENDBRANCH   5   4
TORSDOF 4
ENDMDL
MODEL 8
REMARK VINA RESULT:      -5.5      2.132      6.442
REMARK  Name = ZINC95485890
REMARK  7 active torsions:
REMARK  status: ('A' for Active; 'I' for Inactive)
REMARK    1  A    between atoms: C1_1  and  C2_2
REMARK    2  A    between atoms: C2_2  and  O2_4
REMARK    3  A    between atoms: O2_4  and  C3_5
REMARK    4  A    between atoms: C3_5  and  C4_6
REMARK    5  A    between atoms: C5_8  and  C25_39
REMARK    6  A    between atoms: C14_24  and  C24_38
REMARK    7  A    between atoms: C17_27  and  C20_33
REMARK                            x       y       z     vdW  Elec       q    Type
REMARK                         _______ _______ _______ _____ _____    ______ ____
ROOT
ATOM      5  C   UNL     1      45.367  16.498  20.225  0.00  0.00    +0.044 C 
ATOM      6  C   UNL     1      44.750  17.623  21.072  0.00  0.00    -0.076 C 
ATOM      7  C   UNL     1      45.775  18.345  21.949  0.00  0.00    +0.080 C 
ATOM      8  C   UNL     1      44.080  18.506  20.033  0.00  0.00    -0.026 C 
ATOM      9  C   UNL     1      43.424  19.743  20.683  0.00  0.00    +0.002 C 
ATOM     10  C   UNL     1      43.227  20.556  19.434  0.00  0.00    +0.501 C 
ATOM     11  O   UNL     1      44.215  20.212  18.540  0.00  0.00    -0.328 OA
ATOM     12  O   UNL     1      42.353  21.372  19.248  0.00  0.00    -0.427 OA
ATOM     13  C   UNL     1      42.271  19.201  21.452  0.00  0.00    +0.104 C 
ATOM     14  C   UNL     1      42.389  17.979  22.000  0.00  0.00    -0.084 C 
ATOM     15  C   UNL     1      45.075  19.215  19.108  0.00  0.00    +0.178 C 
ATOM     16  C   UNL     1      45.641  18.126  18.210  0.00  0.00    +0.243 C 
ATOM     17  O   UNL     1      46.814  18.680  17.556  0.00  0.00    -0.354 OA
ATOM     18  C   UNL     1      47.984  18.340  18.312  0.00  0.00    +0.162 C 
ATOM     19  C   UNL     1      48.844  19.512  18.800  0.00  0.00    +0.051 C 
ATOM     20  C   UNL     1      49.390  18.922  20.128  0.00  0.00    +0.108 C 
ATOM     26  C   UNL     1      48.343  17.917  20.558  0.00  0.00    +0.046 C 
ATOM     27  C   UNL     1      47.510  17.667  19.600  0.00  0.00    -0.177 C 
ATOM     28  C   UNL     1      43.545  17.108  21.857  0.00  0.00    +0.386 C 
ATOM     29  O   UNL     1      43.560  16.006  22.366  0.00  0.00    -0.394 OA
ATOM     30  C   UNL     1      46.235  17.017  19.108  0.00  0.00    -0.008 C 
ATOM     31  C   UNL     1      46.625  15.846  18.207  0.00  0.00    +0.066 C 
ENDROOT
BRANCH  20  21
ATOM     21  C   UNL     1      50.713  18.237  19.898  0.00  0.00    -0.171 A 
ATOM     22  C   UNL     1      51.767  18.695  19.075  0.00  0.00    -0.058 A 
ATOM     23  C   UNL     1      52.753  17.783  19.160  0.00  0.00    +0.166 A 
ATOM     24  O   UNL     1      52.353  16.803  19.986  0.00  0.00    -0.174 OA
ATOM     25  C   UNL     1      51.119  17.075  20.441  0.00  0.00    +0.163 A 
ENDBRANCH  20  21
BRANCH   5   4
ATOM      4  C   UNL     1      46.216  15.605  21.133  0.00  0.00    +0.205 C 
BRANCH   4   3
ATOM      3  O   UNL     1      45.614  14.313  21.228  0.00  0.00    -0.310 OA
BRANCH   3   2
ATOM      1  C   UNL     1      44.934  12.980  19.264  0.00  0.00    +0.150 C 
ATOM      2  C   UNL     1      45.950  13.414  20.289  0.00  0.00    +0.454 C 
ATOM     32  O   UNL     1      47.067  12.952  20.266  0.00  0.00    -0.521 OA
ENDBRANCH   3   2
ENDBRANCH   4   3
ENDBRANCH   5   4
TORSDOF 4
ENDMDL
MODEL 9
REMARK VINA RESULT:      -5.5      2.160      5.817
REMARK  Name = ZINC95485890
REMARK  7 active torsions:
REMARK  status: ('A' for Active; 'I' for Inactive)
REMARK    1  A    between atoms: C1_1  and  C2_2
REMARK    2  A    between atoms: C2_2  and  O2_4
REMARK    3  A    between atoms: O2_4  and  C3_5
REMARK    4  A    between atoms: C3_5  and  C4_6
REMARK    5  A    between atoms: C5_8  and  C25_39
REMARK    6  A    between atoms: C14_24  and  C24_38
REMARK    7  A    between atoms: C17_27  and  C20_33
REMARK                            x       y       z     vdW  Elec       q    Type
REMARK                         _______ _______ _______ _____ _____    ______ ____
ROOT
ATOM      5  C   UNL     1      46.080  19.980  19.606  0.00  0.00    +0.044 C 
ATOM      6  C   UNL     1      46.584  20.347  21.012  0.00  0.00    -0.076 C 
ATOM      7  C   UNL     1      46.383  19.225  22.033  0.00  0.00    +0.080 C 
ATOM      8  C   UNL     1      48.035  20.723  20.769  0.00  0.00    -0.026 C 
ATOM      9  C   UNL     1      48.751  21.089  22.086  0.00  0.00    +0.002 C 
ATOM     10  C   UNL     1      50.166  21.012  21.585  0.00  0.00    +0.501 C 
ATOM     11  O   UNL     1      50.208  20.092  20.562  0.00  0.00    -0.328 OA
ATOM     12  O   UNL     1      51.105  21.647  22.006  0.00  0.00    -0.427 OA
ATOM     13  C   UNL     1      48.139  22.379  22.504  0.00  0.00    +0.104 C 
ATOM     14  C   UNL     1      46.845  22.596  22.211  0.00  0.00    -0.084 C 
ATOM     15  C   UNL     1      48.904  19.535  20.340  0.00  0.00    +0.178 C 
ATOM     16  C   UNL     1      48.471  19.205  18.921  0.00  0.00    +0.243 C 
ATOM     17  O   UNL     1      49.018  17.899  18.600  0.00  0.00    -0.354 OA
ATOM     18  C   UNL     1      48.039  16.891  18.884  0.00  0.00    +0.162 C 
ATOM     19  C   UNL     1      48.454  15.797  19.875  0.00  0.00    +0.051 C 
ATOM     20  C   UNL     1      47.084  15.486  20.536  0.00  0.00    +0.108 C 
ATOM     26  C   UNL     1      46.294  16.770  20.398  0.00  0.00    +0.046 C 
ATOM     27  C   UNL     1      46.862  17.585  19.570  0.00  0.00    -0.177 C 
ATOM     28  C   UNL     1      45.995  21.683  21.464  0.00  0.00    +0.386 C 
ATOM     29  O   UNL     1      44.840  21.966  21.221  0.00  0.00    -0.394 OA
ATOM     30  C   UNL     1      46.946  18.952  18.926  0.00  0.00    -0.008 C 
ATOM     31  C   UNL     1      46.491  18.814  17.473  0.00  0.00    +0.066 C 
ENDROOT
BRANCH  20  21
ATOM     21  C   UNL     1      46.391  14.361  19.810  0.00  0.00    -0.171 A 
ATOM     22  C   UNL     1      46.942  13.548  18.793  0.00  0.00    -0.058 A 
ATOM     23  C   UNL     1      45.984  12.677  18.429  0.00  0.00    +0.166 A 
ATOM     24  O   UNL     1      44.888  12.919  19.167  0.00  0.00    -0.174 OA
ATOM     25  C   UNL     1      45.130  13.935  20.010  0.00  0.00    +0.163 A 
ENDBRANCH  20  21
BRANCH   5   4
ATOM      4  C   UNL     1      44.657  19.427  19.720  0.00  0.00    +0.205 C 
BRANCH   4   3
ATOM      3  O   UNL     1      43.801  20.126  18.815  0.00  0.00    -0.310 OA
BRANCH   3   2
ATOM      1  C   UNL     1      41.960  19.355  20.269  0.00  0.00    +0.150 C 
ATOM      2  C   UNL     1      42.478  20.010  19.014  0.00  0.00    +0.454 C 
ATOM     32  O   UNL     1      41.703  20.430  18.188  0.00  0.00    -0.521 OA
ENDBRANCH   3   2
ENDBRANCH   4   3
ENDBRANCH   5   4
TORSDOF 4
ENDMDL
