MODEL 1
REMARK VINA RESULT:      -5.8      0.000      0.000
REMARK  Name = ZINC00900182
REMARK  4 active torsions:
REMARK  status: ('A' for Active; 'I' for Inactive)
REMARK    1  A    between atoms: C1_1  and  O1_2
REMARK    2  A    between atoms: O1_2  and  C2_3
REMARK    3  A    between atoms: C12_14  and  O3_15
REMARK    4  A    between atoms: O3_15  and  C13_16
REMARK                            x       y       z     vdW  Elec       q    Type
REMARK                         _______ _______ _______ _____ _____    ______ ____
ROOT
ATOM      3  C   UNL     1      42.985  19.866  20.115  0.00  0.00    +0.351 A 
ATOM      4  C   UNL     1      41.931  20.399  19.378  0.00  0.00    -0.192 A 
ATOM      5  C   UNL     1      40.705  19.841  18.793  0.00  0.00    +0.043 A 
ATOM      6  C   UNL     1      40.077  20.864  18.201  0.00  0.00    +0.283 A 
ATOM      7  O   UNL     1      40.779  22.000  18.361  0.00  0.00    -0.171 OA
ATOM      8  C   UNL     1      41.908  21.777  19.068  0.00  0.00    +0.351 A 
ATOM      9  N   UNL     1      42.881  22.650  19.445  0.00  0.00    -0.486 N 
ATOM     10  H   UNL     1      42.841  23.647  19.204  0.00  0.00    +0.477 HD
ATOM     11  C   UNL     1      43.925  22.114  20.168  0.00  0.00    +0.209 A 
ATOM     12  C   UNL     1      44.954  22.988  20.573  0.00  0.00    +0.058 A 
ATOM     15  C   UNL     1      46.023  22.503  21.296  0.00  0.00    +0.134 A 
ATOM     16  O   UNL     1      47.128  23.133  21.796  0.00  0.00    -0.272 OA
ATOM     17  C   UNL     1      48.072  22.086  22.082  0.00  0.00    +0.475 C 
ATOM     18  O   UNL     1      47.247  20.938  22.346  0.00  0.00    -0.281 OA
ATOM     19  C   UNL     1      46.096  21.143  21.637  0.00  0.00    +0.068 A 
ATOM     20  C   UNL     1      45.111  20.277  21.259  0.00  0.00    +0.135 A 
ATOM     21  C   UNL     1      44.011  20.743  20.519  0.00  0.00    -0.108 A 
ENDROOT
BRANCH   3   2
ATOM      1  C   UNL     1      42.380  18.150  21.642  0.00  0.00    +0.300 C 
ATOM      2  O   UNL     1      43.023  18.548  20.429  0.00  0.00    -0.315 OA
ENDBRANCH   3   2
BRANCH  12  13
ATOM     13  O   UNL     1      44.894  24.308  20.250  0.00  0.00    -0.311 OA
ATOM     14  C   UNL     1      44.876  24.635  18.860  0.00  0.00    +0.253 C 
ENDBRANCH  12  13
TORSDOF 2
ENDMDL
MODEL 2
REMARK VINA RESULT:      -5.7      4.282      6.005
REMARK  Name = ZINC00900182
REMARK  4 active torsions:
REMARK  status: ('A' for Active; 'I' for Inactive)
REMARK    1  A    between atoms: C1_1  and  O1_2
REMARK    2  A    between atoms: O1_2  and  C2_3
REMARK    3  A    between atoms: C12_14  and  O3_15
REMARK    4  A    between atoms: O3_15  and  C13_16
REMARK                            x       y       z     vdW  Elec       q    Type
REMARK                         _______ _______ _______ _____ _____    ______ ____
ROOT
ATOM      3  C   UNL     1      46.315  16.900  17.933  0.00  0.00    +0.351 A 
ATOM      4  C   UNL     1      46.089  15.593  18.355  0.00  0.00    -0.192 A 
ATOM      5  C   UNL     1      46.516  14.273  17.874  0.00  0.00    +0.043 A 
ATOM      6  C   UNL     1      45.975  13.380  18.712  0.00  0.00    +0.283 A 
ATOM      7  O   UNL     1      45.260  14.005  19.664  0.00  0.00    -0.171 OA
ATOM      8  C   UNL     1      45.298  15.344  19.498  0.00  0.00    +0.351 A 
ATOM      9  N   UNL     1      44.715  16.326  20.239  0.00  0.00    -0.486 N 
ATOM     10  H   UNL     1      44.143  16.118  21.065  0.00  0.00    +0.477 HD
ATOM     11  C   UNL     1      44.938  17.618  19.811  0.00  0.00    +0.209 A 
ATOM     12  C   UNL     1      44.347  18.661  20.552  0.00  0.00    +0.058 A 
ATOM     15  C   UNL     1      44.536  19.970  20.165  0.00  0.00    +0.134 A 
ATOM     16  O   UNL     1      44.077  21.140  20.704  0.00  0.00    -0.272 OA
ATOM     17  C   UNL     1      44.236  22.128  19.671  0.00  0.00    +0.475 C 
ATOM     18  O   UNL     1      45.336  21.635  18.886  0.00  0.00    -0.281 OA
ATOM     19  C   UNL     1      45.316  20.277  19.039  0.00  0.00    +0.068 A 
ATOM     20  C   UNL     1      45.901  19.285  18.307  0.00  0.00    +0.135 A 
ATOM     21  C   UNL     1      45.724  17.941  18.676  0.00  0.00    -0.108 A 
ENDROOT
BRANCH   3   2
ATOM      1  C   UNL     1      48.494  17.178  17.027  0.00  0.00    +0.300 C 
ATOM      2  O   UNL     1      47.076  17.162  16.842  0.00  0.00    -0.315 OA
ENDBRANCH   3   2
BRANCH  12  13
ATOM     13  O   UNL     1      43.590  18.376  21.646  0.00  0.00    -0.311 OA
ATOM     14  C   UNL     1      42.174  18.512  21.509  0.00  0.00    +0.253 C 
ENDBRANCH  12  13
TORSDOF 2
ENDMDL
MODEL 3
REMARK VINA RESULT:      -5.6      3.988      5.898
REMARK  Name = ZINC00900182
REMARK  4 active torsions:
REMARK  status: ('A' for Active; 'I' for Inactive)
REMARK    1  A    between atoms: C1_1  and  O1_2
REMARK    2  A    between atoms: O1_2  and  C2_3
REMARK    3  A    between atoms: C12_14  and  O3_15
REMARK    4  A    between atoms: O3_15  and  C13_16
REMARK                            x       y       z     vdW  Elec       q    Type
REMARK                         _______ _______ _______ _____ _____    ______ ____
ROOT
ATOM      3  C   UNL     1      44.478  18.854  20.677  0.00  0.00    +0.351 A 
ATOM      4  C   UNL     1      44.718  20.112  20.131  0.00  0.00    -0.192 A 
ATOM      5  C   UNL     1      44.386  21.484  20.536  0.00  0.00    +0.043 A 
ATOM      6  C   UNL     1      44.903  22.284  19.595  0.00  0.00    +0.283 A 
ATOM      7  O   UNL     1      45.524  21.554  18.651  0.00  0.00    -0.171 OA
ATOM      8  C   UNL     1      45.446  20.235  18.928  0.00  0.00    +0.351 A 
ATOM      9  N   UNL     1      45.940  19.174  18.234  0.00  0.00    -0.486 N 
ATOM     10  H   UNL     1      46.464  19.291  17.359  0.00  0.00    +0.477 HD
ATOM     11  C   UNL     1      45.692  17.930  18.776  0.00  0.00    +0.209 A 
ATOM     12  C   UNL     1      46.186  16.807  18.083  0.00  0.00    +0.058 A 
ATOM     15  C   UNL     1      45.963  15.541  18.581  0.00  0.00    +0.134 A 
ATOM     16  O   UNL     1      46.329  14.313  18.104  0.00  0.00    -0.272 OA
ATOM     17  C   UNL     1      45.486  13.368  18.789  0.00  0.00    +0.475 C 
ATOM     18  O   UNL     1      45.177  14.018  20.034  0.00  0.00    -0.281 OA
ATOM     19  C   UNL     1      45.249  15.358  19.776  0.00  0.00    +0.068 A 
ATOM     20  C   UNL     1      44.763  16.430  20.466  0.00  0.00    +0.135 A 
ATOM     21  C   UNL     1      44.973  17.732  19.982  0.00  0.00    -0.108 A 
ENDROOT
BRANCH   3   2
ATOM      1  C   UNL     1      42.360  18.744  21.748  0.00  0.00    +0.300 C 
ATOM      2  O   UNL     1      43.787  18.713  21.835  0.00  0.00    -0.315 OA
ENDBRANCH   3   2
BRANCH  12  13
ATOM     13  O   UNL     1      46.880  16.971  16.925  0.00  0.00    -0.311 OA
ATOM     14  C   UNL     1      48.305  16.969  17.017  0.00  0.00    +0.253 C 
ENDBRANCH  12  13
TORSDOF 2
ENDMDL
MODEL 4
REMARK VINA RESULT:      -5.5      3.788      5.509
REMARK  Name = ZINC00900182
REMARK  4 active torsions:
REMARK  status: ('A' for Active; 'I' for Inactive)
REMARK    1  A    between atoms: C1_1  and  O1_2
REMARK    2  A    between atoms: O1_2  and  C2_3
REMARK    3  A    between atoms: C12_14  and  O3_15
REMARK    4  A    between atoms: O3_15  and  C13_16
REMARK                            x       y       z     vdW  Elec       q    Type
REMARK                         _______ _______ _______ _____ _____    ______ ____
ROOT
ATOM      3  C   UNL     1      48.109  18.751  18.875  0.00  0.00    +0.351 A 
ATOM      4  C   UNL     1      47.766  17.679  18.057  0.00  0.00    -0.192 A 
ATOM      5  C   UNL     1      48.506  16.540  17.497  0.00  0.00    +0.043 A 
ATOM      6  C   UNL     1      47.619  15.835  16.784  0.00  0.00    +0.283 A 
ATOM      7  O   UNL     1      46.406  16.412  16.845  0.00  0.00    -0.171 OA
ATOM      8  C   UNL     1      46.437  17.529  17.604  0.00  0.00    +0.351 A 
ATOM      9  N   UNL     1      45.433  18.393  17.916  0.00  0.00    -0.486 N 
ATOM     10  H   UNL     1      44.475  18.262  17.571  0.00  0.00    +0.477 HD
ATOM     11  C   UNL     1      45.781  19.457  18.721  0.00  0.00    +0.209 A 
ATOM     12  C   UNL     1      44.768  20.375  19.062  0.00  0.00    +0.058 A 
ATOM     15  C   UNL     1      45.063  21.457  19.862  0.00  0.00    +0.134 A 
ATOM     16  O   UNL     1      44.273  22.472  20.325  0.00  0.00    -0.272 OA
ATOM     17  C   UNL     1      45.182  23.506  20.747  0.00  0.00    +0.475 C 
ATOM     18  O   UNL     1      46.378  22.791  21.105  0.00  0.00    -0.281 OA
ATOM     19  C   UNL     1      46.367  21.655  20.346  0.00  0.00    +0.068 A 
ATOM     20  C   UNL     1      47.364  20.778  20.031  0.00  0.00    +0.135 A 
ATOM     21  C   UNL     1      47.093  19.667  19.216  0.00  0.00    -0.108 A 
ENDROOT
BRANCH   3   2
ATOM      1  C   UNL     1      50.321  19.490  18.422  0.00  0.00    +0.300 C 
ATOM      2  O   UNL     1      49.378  18.911  19.327  0.00  0.00    -0.315 OA
ENDBRANCH   3   2
BRANCH  12  13
ATOM     13  O   UNL     1      43.500  20.194  18.601  0.00  0.00    -0.311 OA
ATOM     14  C   UNL     1      42.530  19.728  19.540  0.00  0.00    +0.253 C 
ENDBRANCH  12  13
TORSDOF 2
ENDMDL
MODEL 5
REMARK VINA RESULT:      -5.4      4.074      5.362
REMARK  Name = ZINC00900182
REMARK  4 active torsions:
REMARK  status: ('A' for Active; 'I' for Inactive)
REMARK    1  A    between atoms: C1_1  and  O1_2
REMARK    2  A    between atoms: O1_2  and  C2_3
REMARK    3  A    between atoms: C12_14  and  O3_15
REMARK    4  A    between atoms: O3_15  and  C13_16
REMARK                            x       y       z     vdW  Elec       q    Type
REMARK                         _______ _______ _______ _____ _____    ______ ____
ROOT
ATOM      3  C   UNL     1      46.224  20.919  19.616  0.00  0.00    +0.351 A 
ATOM      4  C   UNL     1      44.855  20.858  19.371  0.00  0.00    -0.192 A 
ATOM      5  C   UNL     1      43.708  21.692  19.752  0.00  0.00    +0.043 A 
ATOM      6  C   UNL     1      42.632  21.118  19.201  0.00  0.00    +0.283 A 
ATOM      7  O   UNL     1      42.988  20.018  18.514  0.00  0.00    -0.171 OA
ATOM      8  C   UNL     1      44.322  19.816  18.581  0.00  0.00    +0.351 A 
ATOM      9  N   UNL     1      45.077  18.828  18.029  0.00  0.00    -0.486 N 
ATOM     10  H   UNL     1      44.664  18.080  17.460  0.00  0.00    +0.477 HD
ATOM     11  C   UNL     1      46.431  18.891  18.281  0.00  0.00    +0.209 A 
ATOM     12  C   UNL     1      47.245  17.881  17.728  0.00  0.00    +0.058 A 
ATOM     15  C   UNL     1      48.604  17.896  17.952  0.00  0.00    +0.134 A 
ATOM     16  O   UNL     1      49.591  17.046  17.536  0.00  0.00    -0.272 OA
ATOM     17  C   UNL     1      50.715  17.310  18.396  0.00  0.00    +0.475 C 
ATOM     18  O   UNL     1      50.537  18.683  18.786  0.00  0.00    -0.281 OA
ATOM     19  C   UNL     1      49.191  18.910  18.726  0.00  0.00    +0.068 A 
ATOM     20  C   UNL     1      48.424  19.899  19.271  0.00  0.00    +0.135 A 
ATOM     21  C   UNL     1      47.035  19.909  19.061  0.00  0.00    -0.108 A 
ENDROOT
BRANCH   3   2
ATOM      1  C   UNL     1      46.668  21.776  21.787  0.00  0.00    +0.300 C 
ATOM      2  O   UNL     1      46.758  21.914  20.366  0.00  0.00    -0.315 OA
ENDBRANCH   3   2
BRANCH  12  13
ATOM     13  O   UNL     1      46.689  16.894  16.975  0.00  0.00    -0.311 OA
ATOM     14  C   UNL     1      46.507  15.624  17.603  0.00  0.00    +0.253 C 
ENDBRANCH  12  13
TORSDOF 2
ENDMDL
MODEL 6
REMARK VINA RESULT:      -5.4      2.050      5.162
REMARK  Name = ZINC00900182
REMARK  4 active torsions:
REMARK  status: ('A' for Active; 'I' for Inactive)
REMARK    1  A    between atoms: C1_1  and  O1_2
REMARK    2  A    between atoms: O1_2  and  C2_3
REMARK    3  A    between atoms: C12_14  and  O3_15
REMARK    4  A    between atoms: O3_15  and  C13_16
REMARK                            x       y       z     vdW  Elec       q    Type
REMARK                         _______ _______ _______ _____ _____    ______ ____
ROOT
ATOM      3  C   UNL     1      45.697  18.988  19.420  0.00  0.00    +0.351 A 
ATOM      4  C   UNL     1      46.901  19.448  19.944  0.00  0.00    -0.192 A 
ATOM      5  C   UNL     1      48.202  18.825  20.223  0.00  0.00    +0.043 A 
ATOM      6  C   UNL     1      48.978  19.794  20.723  0.00  0.00    +0.283 A 
ATOM      7  O   UNL     1      48.300  20.954  20.780  0.00  0.00    -0.171 OA
ATOM      8  C   UNL     1      47.040  20.802  20.318  0.00  0.00    +0.351 A 
ATOM      9  N   UNL     1      46.042  21.721  20.206  0.00  0.00    -0.486 N 
ATOM     10  H   UNL     1      46.169  22.699  20.487  0.00  0.00    +0.477 HD
ATOM     11  C   UNL     1      44.850  21.256  19.692  0.00  0.00    +0.209 A 
ATOM     12  C   UNL     1      43.792  22.179  19.565  0.00  0.00    +0.058 A 
ATOM     15  C   UNL     1      42.578  21.765  19.060  0.00  0.00    +0.134 A 
ATOM     16  O   UNL     1      41.416  22.453  18.843  0.00  0.00    -0.272 OA
ATOM     17  C   UNL     1      40.394  21.448  18.706  0.00  0.00    +0.475 C 
ATOM     18  O   UNL     1      41.103  20.299  18.209  0.00  0.00    -0.281 OA
ATOM     19  C   UNL     1      42.383  20.431  18.668  0.00  0.00    +0.068 A 
ATOM     20  C   UNL     1      43.393  19.520  18.779  0.00  0.00    +0.135 A 
ATOM     21  C   UNL     1      44.641  19.912  19.292  0.00  0.00    -0.108 A 
ENDROOT
BRANCH   3   2
ATOM      1  C   UNL     1      45.174  16.763  20.069  0.00  0.00    +0.300 C 
ATOM      2  O   UNL     1      45.544  17.692  19.048  0.00  0.00    -0.315 OA
ENDBRANCH   3   2
BRANCH  12  13
ATOM     13  O   UNL     1      43.968  23.475  19.941  0.00  0.00    -0.311 OA
ATOM     14  C   UNL     1      44.337  24.401  18.918  0.00  0.00    +0.253 C 
ENDBRANCH  12  13
TORSDOF 2
ENDMDL
MODEL 7
REMARK VINA RESULT:      -5.4     21.094     22.836
REMARK  Name = ZINC00900182
REMARK  4 active torsions:
REMARK  status: ('A' for Active; 'I' for Inactive)
REMARK    1  A    between atoms: C1_1  and  O1_2
REMARK    2  A    between atoms: O1_2  and  C2_3
REMARK    3  A    between atoms: C12_14  and  O3_15
REMARK    4  A    between atoms: O3_15  and  C13_16
REMARK                            x       y       z     vdW  Elec       q    Type
REMARK                         _______ _______ _______ _____ _____    ______ ____
ROOT
ATOM      3  C   UNL     1      53.562  33.037   4.864  0.00  0.00    +0.351 A 
ATOM      4  C   UNL     1      53.276  33.957   5.869  0.00  0.00    -0.192 A 
ATOM      5  C   UNL     1      52.035  34.493   6.443  0.00  0.00    +0.043 A 
ATOM      6  C   UNL     1      52.409  35.351   7.401  0.00  0.00    +0.283 A 
ATOM      7  O   UNL     1      53.750  35.401   7.485  0.00  0.00    -0.171 OA
ATOM      8  C   UNL     1      54.325  34.575   6.584  0.00  0.00    +0.351 A 
ATOM      9  N   UNL     1      55.643  34.333   6.347  0.00  0.00    -0.486 N 
ATOM     10  H   UNL     1      56.386  34.798   6.881  0.00  0.00    +0.477 HD
ATOM     11  C   UNL     1      55.919  33.426   5.346  0.00  0.00    +0.209 A 
ATOM     12  C   UNL     1      57.274  33.153   5.070  0.00  0.00    +0.058 A 
ATOM     15  C   UNL     1      57.605  32.257   4.077  0.00  0.00    +0.134 A 
ATOM     16  O   UNL     1      58.822  31.830   3.623  0.00  0.00    -0.272 OA
ATOM     17  C   UNL     1      58.567  31.237   2.337  0.00  0.00    +0.475 C 
ATOM     18  O   UNL     1      57.206  30.783   2.427  0.00  0.00    -0.281 OA
ATOM     19  C   UNL     1      56.604  31.609   3.336  0.00  0.00    +0.068 A 
ATOM     20  C   UNL     1      55.285  31.855   3.586  0.00  0.00    +0.135 A 
ATOM     21  C   UNL     1      54.918  32.765   4.591  0.00  0.00    -0.108 A 
ENDROOT
BRANCH   3   2
ATOM      1  C   UNL     1      51.970  33.170   3.106  0.00  0.00    +0.300 C 
ATOM      2  O   UNL     1      52.570  32.427   4.169  0.00  0.00    -0.315 OA
ENDBRANCH   3   2
BRANCH  12  13
ATOM     13  O   UNL     1      58.254  33.774   5.782  0.00  0.00    -0.311 OA
ATOM     14  C   UNL     1      58.974  34.815   5.122  0.00  0.00    +0.253 C 
ENDBRANCH  12  13
TORSDOF 2
ENDMDL
MODEL 8
REMARK VINA RESULT:      -5.3      2.091      4.140
REMARK  Name = ZINC00900182
REMARK  4 active torsions:
REMARK  status: ('A' for Active; 'I' for Inactive)
REMARK    1  A    between atoms: C1_1  and  O1_2
REMARK    2  A    between atoms: O1_2  and  C2_3
REMARK    3  A    between atoms: C12_14  and  O3_15
REMARK    4  A    between atoms: O3_15  and  C13_16
REMARK                            x       y       z     vdW  Elec       q    Type
REMARK                         _______ _______ _______ _____ _____    ______ ____
ROOT
ATOM      3  C   UNL     1      43.898  21.370  19.479  0.00  0.00    +0.351 A 
ATOM      4  C   UNL     1      42.533  21.212  19.258  0.00  0.00    -0.192 A 
ATOM      5  C   UNL     1      41.475  22.076  18.718  0.00  0.00    +0.043 A 
ATOM      6  C   UNL     1      40.351  21.350  18.748  0.00  0.00    +0.283 A 
ATOM      7  O   UNL     1      40.598  20.125  19.245  0.00  0.00    -0.171 OA
ATOM      8  C   UNL     1      41.903  19.986  19.566  0.00  0.00    +0.351 A 
ATOM      9  N   UNL     1      42.556  18.914  20.091  0.00  0.00    -0.486 N 
ATOM     10  H   UNL     1      42.073  18.035  20.308  0.00  0.00    +0.477 HD
ATOM     11  C   UNL     1      43.907  19.081  20.314  0.00  0.00    +0.209 A 
ATOM     12  C   UNL     1      44.616  17.992  20.859  0.00  0.00    +0.058 A 
ATOM     15  C   UNL     1      45.968  18.107  21.105  0.00  0.00    +0.134 A 
ATOM     16  O   UNL     1      46.865  17.214  21.621  0.00  0.00    -0.272 OA
ATOM     17  C   UNL     1      48.000  17.999  22.026  0.00  0.00    +0.475 C 
ATOM     18  O   UNL     1      47.963  19.140  21.151  0.00  0.00    -0.281 OA
ATOM     19  C   UNL     1      46.648  19.300  20.814  0.00  0.00    +0.068 A 
ATOM     20  C   UNL     1      45.983  20.367  20.283  0.00  0.00    +0.135 A 
ATOM     21  C   UNL     1      44.605  20.280  20.024  0.00  0.00    -0.108 A 
ENDROOT
BRANCH   3   2
ATOM      1  C   UNL     1      44.765  23.437  20.268  0.00  0.00    +0.300 C 
ATOM      2  O   UNL     1      44.524  22.536  19.185  0.00  0.00    -0.315 OA
ENDBRANCH   3   2
BRANCH  12  13
ATOM     13  O   UNL     1      43.969  16.830  21.144  0.00  0.00    -0.311 OA
ATOM     14  C   UNL     1      43.592  16.614  22.505  0.00  0.00    +0.253 C 
ENDBRANCH  12  13
TORSDOF 2
ENDMDL
MODEL 9
REMARK VINA RESULT:      -5.2      4.887      7.084
REMARK  Name = ZINC00900182
REMARK  4 active torsions:
REMARK  status: ('A' for Active; 'I' for Inactive)
REMARK    1  A    between atoms: C1_1  and  O1_2
REMARK    2  A    between atoms: O1_2  and  C2_3
REMARK    3  A    between atoms: C12_14  and  O3_15
REMARK    4  A    between atoms: O3_15  and  C13_16
REMARK                            x       y       z     vdW  Elec       q    Type
REMARK                         _______ _______ _______ _____ _____    ______ ____
ROOT
ATOM      3  C   UNL     1      44.800  18.248  19.343  0.00  0.00    +0.351 A 
ATOM      4  C   UNL     1      44.100  18.409  20.535  0.00  0.00    -0.192 A 
ATOM      5  C   UNL     1      43.383  19.529  21.159  0.00  0.00    +0.043 A 
ATOM      6  C   UNL     1      42.902  19.063  22.317  0.00  0.00    +0.283 A 
ATOM      7  O   UNL     1      43.240  17.771  22.478  0.00  0.00    -0.171 OA
ATOM      8  C   UNL     1      43.962  17.324  21.428  0.00  0.00    +0.351 A 
ATOM      9  N   UNL     1      44.490  16.091  21.202  0.00  0.00    -0.486 N 
ATOM     10  H   UNL     1      44.377  15.319  21.869  0.00  0.00    +0.477 HD
ATOM     11  C   UNL     1      45.189  15.941  20.022  0.00  0.00    +0.209 A 
ATOM     12  C   UNL     1      45.754  14.677  19.756  0.00  0.00    +0.058 A 
ATOM     15  C   UNL     1      46.464  14.475  18.592  0.00  0.00    +0.134 A 
ATOM     16  O   UNL     1      47.099  13.364  18.111  0.00  0.00    -0.272 OA
ATOM     17  C   UNL     1      47.996  13.843  17.093  0.00  0.00    +0.475 C 
ATOM     18  O   UNL     1      47.367  15.045  16.615  0.00  0.00    -0.281 OA
ATOM     19  C   UNL     1      46.630  15.516  17.665  0.00  0.00    +0.068 A 
ATOM     20  C   UNL     1      46.091  16.747  17.900  0.00  0.00    +0.135 A 
ATOM     21  C   UNL     1      45.363  16.984  19.078  0.00  0.00    -0.108 A 
ENDROOT
BRANCH   3   2
ATOM      1  C   UNL     1      45.958  20.238  18.753  0.00  0.00    +0.300 C 
ATOM      2  O   UNL     1      44.940  19.275  18.468  0.00  0.00    -0.315 OA
ENDBRANCH   3   2
BRANCH  12  13
ATOM     13  O   UNL     1      45.599  13.659  20.645  0.00  0.00    -0.311 OA
ATOM     14  C   UNL     1      46.707  13.371  21.499  0.00  0.00    +0.253 C 
ENDBRANCH  12  13
TORSDOF 2
ENDMDL
