MODEL 1
REMARK VINA RESULT:      -8.6      0.000      0.000
REMARK  Name = ZINC95486074
REMARK  9 active torsions:
REMARK  status: ('A' for Active; 'I' for Inactive)
REMARK    1  A    between atoms: C1_1  and  C2_2
REMARK    2  A    between atoms: C5_5  and  O3_38
REMARK    3  A    between atoms: C6_7  and  C29_36
REMARK    4  A    between atoms: C6_7  and  C30_37
REMARK    5  A    between atoms: C10_12  and  C28_35
REMARK    6  A    between atoms: C15_18  and  C27_34
REMARK    7  A    between atoms: C21_25  and  C24_30
REMARK    8  A    between atoms: C21_25  and  C25_31
REMARK    9  A    between atoms: C23_27  and  O1_29
REMARK                            x       y       z     vdW  Elec       q    Type
REMARK                         _______ _______ _______ _____ _____    ______ ____
ROOT
ATOM      1  C   UNL     1      49.562  17.499  20.496  0.00  0.00    +0.024 C 
ATOM      2  C   UNL     1      48.984  17.865  19.135  0.00  0.00    -0.039 C 
ATOM      3  C   UNL     1      49.051  16.592  18.264  0.00  0.00    +0.020 C 
ATOM      4  C   UNL     1      50.509  16.157  18.139  0.00  0.00    -0.023 C 
ATOM      5  C   UNL     1      51.329  17.226  17.430  0.00  0.00    +0.165 C 
ATOM      8  C   UNL     1      51.189  18.611  18.059  0.00  0.00    -0.039 C 
ATOM      9  C   UNL     1      52.136  18.746  19.251  0.00  0.00    +0.033 C 
ATOM     10  C   UNL     1      51.671  19.621  16.987  0.00  0.00    +0.015 C 
ATOM     11  C   UNL     1      47.504  18.277  19.256  0.00  0.00    +0.039 C 
ATOM     12  C   UNL     1      46.941  18.226  17.830  0.00  0.00    +0.009 C 
ATOM     13  C   UNL     1      45.488  18.675  17.776  0.00  0.00    +0.025 C 
ATOM     14  C   UNL     1      44.970  18.973  19.171  0.00  0.00    +0.141 C 
ATOM     15  C   UNL     1      45.797  20.042  19.870  0.00  0.00    -0.040 C 
ATOM     16  C   UNL     1      45.647  21.406  19.188  0.00  0.00    +0.029 C 
ATOM     17  C   UNL     1      45.298  20.142  21.322  0.00  0.00    +0.027 C 
ATOM     18  C   UNL     1      43.763  20.255  21.364  0.00  0.00    +0.024 C 
ATOM     19  C   UNL     1      43.158  19.054  20.645  0.00  0.00    -0.080 C 
ATOM     20  C   UNL     1      43.974  17.796  20.957  0.00  0.00    +0.197 C 
ATOM     21  C   UNL     1      41.668  18.937  20.837  0.00  0.00    +0.185 C 
ATOM     24  C   UNL     1      40.982  20.190  20.281  0.00  0.00    -0.002 C 
ATOM     25  C   UNL     1      41.348  20.463  18.828  0.00  0.00    -0.060 C 
ATOM     26  C   UNL     1      40.789  21.838  18.438  0.00  0.00    +0.023 C 
ATOM     27  C   UNL     1      40.722  19.410  17.919  0.00  0.00    +0.022 C 
ATOM     28  C   UNL     1      42.876  20.495  18.633  0.00  0.00    +0.051 C 
ATOM     29  O   UNL     1      45.047  17.766  19.987  0.00  0.00    -0.367 OA
ATOM     30  C   UNL     1      43.464  19.209  19.130  0.00  0.00    -0.019 C 
ATOM     31  C   UNL     1      47.292  19.655  19.865  0.00  0.00    -0.022 C 
ATOM     32  C   UNL     1      47.779  19.713  21.323  0.00  0.00    +0.018 C 
ATOM     33  C   UNL     1      48.118  20.689  19.092  0.00  0.00    +0.016 C 
ATOM     34  C   UNL     1      49.607  20.290  19.116  0.00  0.00    +0.008 C 
ATOM     35  C   UNL     1      49.754  18.950  18.404  0.00  0.00    +0.001 C 
ENDROOT
BRANCH   5   6
ATOM      6  O   UNL     1      52.712  16.847  17.446  0.00  0.00    -0.566 OA
ATOM      7  H   UNL     1      53.068  16.697  18.333  0.00  0.00    +0.374 HD
ENDBRANCH   5   6
BRANCH  21  22
ATOM     22  O   UNL     1      41.371  18.801  22.233  0.00  0.00    -0.564 OA
ATOM     23  H   UNL     1      42.025  19.210  22.815  0.00  0.00    +0.377 HD
ENDBRANCH  21  22
TORSDOF 2
ENDMDL
MODEL 2
REMARK VINA RESULT:      -7.5      2.998      7.880
REMARK  Name = ZINC95486074
REMARK  9 active torsions:
REMARK  status: ('A' for Active; 'I' for Inactive)
REMARK    1  A    between atoms: C1_1  and  C2_2
REMARK    2  A    between atoms: C5_5  and  O3_38
REMARK    3  A    between atoms: C6_7  and  C29_36
REMARK    4  A    between atoms: C6_7  and  C30_37
REMARK    5  A    between atoms: C10_12  and  C28_35
REMARK    6  A    between atoms: C15_18  and  C27_34
REMARK    7  A    between atoms: C21_25  and  C24_30
REMARK    8  A    between atoms: C21_25  and  C25_31
REMARK    9  A    between atoms: C23_27  and  O1_29
REMARK                            x       y       z     vdW  Elec       q    Type
REMARK                         _______ _______ _______ _____ _____    ______ ____
ROOT
ATOM      1  C   UNL     1      46.946  19.184  20.717  0.00  0.00    +0.024 C 
ATOM      2  C   UNL     1      46.127  18.749  19.508  0.00  0.00    -0.039 C 
ATOM      3  C   UNL     1      46.154  19.922  18.505  0.00  0.00    +0.020 C 
ATOM      4  C   UNL     1      45.539  21.152  19.168  0.00  0.00    -0.023 C 
ATOM      5  C   UNL     1      44.080  20.900  19.519  0.00  0.00    +0.165 C 
ATOM      8  C   UNL     1      43.868  19.630  20.342  0.00  0.00    -0.039 C 
ATOM      9  C   UNL     1      44.122  19.914  21.821  0.00  0.00    +0.033 C 
ATOM     10  C   UNL     1      42.364  19.276  20.205  0.00  0.00    +0.015 C 
ATOM     11  C   UNL     1      46.762  17.525  18.821  0.00  0.00    +0.039 C 
ATOM     12  C   UNL     1      46.106  17.438  17.438  0.00  0.00    +0.009 C 
ATOM     13  C   UNL     1      46.588  16.226  16.654  0.00  0.00    +0.025 C 
ATOM     14  C   UNL     1      47.655  15.479  17.433  0.00  0.00    +0.141 C 
ATOM     15  C   UNL     1      47.153  15.024  18.795  0.00  0.00    -0.040 C 
ATOM     16  C   UNL     1      46.062  13.957  18.667  0.00  0.00    +0.029 C 
ATOM     17  C   UNL     1      48.351  14.435  19.561  0.00  0.00    +0.027 C 
ATOM     18  C   UNL     1      49.115  13.427  18.684  0.00  0.00    +0.024 C 
ATOM     19  C   UNL     1      49.557  14.120  17.401  0.00  0.00    -0.080 C 
ATOM     20  C   UNL     1      49.997  15.555  17.709  0.00  0.00    +0.197 C 
ATOM     21  C   UNL     1      50.518  13.297  16.583  0.00  0.00    +0.185 C 
ATOM     24  C   UNL     1      49.847  11.980  16.178  0.00  0.00    -0.002 C 
ATOM     25  C   UNL     1      48.524  12.195  15.454  0.00  0.00    -0.060 C 
ATOM     26  C   UNL     1      47.837  10.832  15.285  0.00  0.00    +0.023 C 
ATOM     27  C   UNL     1      48.771  12.787  14.069  0.00  0.00    +0.022 C 
ATOM     28  C   UNL     1      47.584  13.108  16.264  0.00  0.00    +0.051 C 
ATOM     29  O   UNL     1      48.796  16.358  17.665  0.00  0.00    -0.367 OA
ATOM     30  C   UNL     1      48.284  14.402  16.556  0.00  0.00    -0.019 C 
ATOM     31  C   UNL     1      46.577  16.221  19.583  0.00  0.00    -0.022 C 
ATOM     32  C   UNL     1      47.291  16.252  20.945  0.00  0.00    +0.018 C 
ATOM     33  C   UNL     1      45.089  16.009  19.880  0.00  0.00    +0.016 C 
ATOM     34  C   UNL     1      44.541  17.207  20.681  0.00  0.00    +0.008 C 
ATOM     35  C   UNL     1      44.670  18.457  19.819  0.00  0.00    +0.001 C 
ENDROOT
BRANCH   5   6
ATOM      6  O   UNL     1      43.572  22.020  20.255  0.00  0.00    -0.566 OA
ATOM      7  H   UNL     1      44.182  22.769  20.303  0.00  0.00    +0.374 HD
ENDBRANCH   5   6
BRANCH  21  22
ATOM     22  O   UNL     1      51.696  13.024  17.354  0.00  0.00    -0.564 OA
ATOM     23  H   UNL     1      52.238  12.305  17.002  0.00  0.00    +0.377 HD
ENDBRANCH  21  22
TORSDOF 2
ENDMDL
MODEL 3
REMARK VINA RESULT:      -7.0      3.323      4.937
REMARK  Name = ZINC95486074
REMARK  9 active torsions:
REMARK  status: ('A' for Active; 'I' for Inactive)
REMARK    1  A    between atoms: C1_1  and  C2_2
REMARK    2  A    between atoms: C5_5  and  O3_38
REMARK    3  A    between atoms: C6_7  and  C29_36
REMARK    4  A    between atoms: C6_7  and  C30_37
REMARK    5  A    between atoms: C10_12  and  C28_35
REMARK    6  A    between atoms: C15_18  and  C27_34
REMARK    7  A    between atoms: C21_25  and  C24_30
REMARK    8  A    between atoms: C21_25  and  C25_31
REMARK    9  A    between atoms: C23_27  and  O1_29
REMARK                            x       y       z     vdW  Elec       q    Type
REMARK                         _______ _______ _______ _____ _____    ______ ____
ROOT
ATOM      1  C   UNL     1      48.610  12.077  18.109  0.00  0.00    +0.024 C 
ATOM      2  C   UNL     1      48.220  13.068  17.020  0.00  0.00    -0.039 C 
ATOM      3  C   UNL     1      47.175  12.364  16.129  0.00  0.00    +0.020 C 
ATOM      4  C   UNL     1      47.804  11.110  15.526  0.00  0.00    -0.023 C 
ATOM      5  C   UNL     1      48.979  11.477  14.630  0.00  0.00    +0.165 C 
ATOM      8  C   UNL     1      50.009  12.369  15.320  0.00  0.00    -0.039 C 
ATOM      9  C   UNL     1      50.971  11.519  16.149  0.00  0.00    +0.033 C 
ATOM     10  C   UNL     1      50.845  13.016  14.186  0.00  0.00    +0.015 C 
ATOM     11  C   UNL     1      47.558  14.321  17.624  0.00  0.00    +0.039 C 
ATOM     12  C   UNL     1      46.865  15.030  16.453  0.00  0.00    +0.009 C 
ATOM     13  C   UNL     1      46.214  16.336  16.885  0.00  0.00    +0.025 C 
ATOM     14  C   UNL     1      46.361  16.536  18.382  0.00  0.00    +0.141 C 
ATOM     15  C   UNL     1      47.819  16.539  18.816  0.00  0.00    -0.040 C 
ATOM     16  C   UNL     1      48.568  17.758  18.267  0.00  0.00    +0.029 C 
ATOM     17  C   UNL     1      47.848  16.575  20.354  0.00  0.00    +0.027 C 
ATOM     18  C   UNL     1      46.918  17.678  20.890  0.00  0.00    +0.024 C 
ATOM     19  C   UNL     1      45.508  17.440  20.362  0.00  0.00    -0.080 C 
ATOM     20  C   UNL     1      45.205  15.938  20.350  0.00  0.00    +0.197 C 
ATOM     21  C   UNL     1      44.473  18.316  21.017  0.00  0.00    +0.185 C 
ATOM     24  C   UNL     1      44.810  19.788  20.756  0.00  0.00    -0.002 C 
ATOM     25  C   UNL     1      44.962  20.100  19.273  0.00  0.00    -0.060 C 
ATOM     26  C   UNL     1      45.505  21.530  19.132  0.00  0.00    +0.023 C 
ATOM     27  C   UNL     1      43.607  20.026  18.576  0.00  0.00    +0.022 C 
ATOM     28  C   UNL     1      45.961  19.141  18.599  0.00  0.00    +0.051 C 
ATOM     29  O   UNL     1      45.703  15.441  19.087  0.00  0.00    -0.367 OA
ATOM     30  C   UNL     1      45.523  17.726  18.835  0.00  0.00    -0.019 C 
ATOM     31  C   UNL     1      48.532  15.263  18.318  0.00  0.00    -0.022 C 
ATOM     32  C   UNL     1      49.186  14.602  19.543  0.00  0.00    +0.018 C 
ATOM     33  C   UNL     1      49.673  15.618  17.358  0.00  0.00    +0.016 C 
ATOM     34  C   UNL     1      50.378  14.330  16.889  0.00  0.00    +0.008 C 
ATOM     35  C   UNL     1      49.370  13.485  16.120  0.00  0.00    +0.001 C 
ENDROOT
BRANCH   5   6
ATOM      6  O   UNL     1      49.627  10.277  14.189  0.00  0.00    -0.566 OA
ATOM      7  H   UNL     1      49.436   9.502  14.736  0.00  0.00    +0.374 HD
ENDBRANCH   5   6
BRANCH  21  22
ATOM     22  O   UNL     1      44.454  18.066  22.429  0.00  0.00    -0.564 OA
ATOM     23  H   UNL     1      45.309  18.191  22.861  0.00  0.00    +0.377 HD
ENDBRANCH  21  22
TORSDOF 2
ENDMDL
MODEL 4
REMARK VINA RESULT:      -6.8      1.707      7.921
REMARK  Name = ZINC95486074
REMARK  9 active torsions:
REMARK  status: ('A' for Active; 'I' for Inactive)
REMARK    1  A    between atoms: C1_1  and  C2_2
REMARK    2  A    between atoms: C5_5  and  O3_38
REMARK    3  A    between atoms: C6_7  and  C29_36
REMARK    4  A    between atoms: C6_7  and  C30_37
REMARK    5  A    between atoms: C10_12  and  C28_35
REMARK    6  A    between atoms: C15_18  and  C27_34
REMARK    7  A    between atoms: C21_25  and  C24_30
REMARK    8  A    between atoms: C21_25  and  C25_31
REMARK    9  A    between atoms: C23_27  and  O1_29
REMARK                            x       y       z     vdW  Elec       q    Type
REMARK                         _______ _______ _______ _____ _____    ______ ____
ROOT
ATOM      1  C   UNL     1      44.626  21.357  20.986  0.00  0.00    +0.024 C 
ATOM      2  C   UNL     1      44.739  20.028  20.250  0.00  0.00    -0.039 C 
ATOM      3  C   UNL     1      43.916  20.164  18.951  0.00  0.00    +0.020 C 
ATOM      4  C   UNL     1      42.464  20.465  19.317  0.00  0.00    -0.023 C 
ATOM      5  C   UNL     1      41.861  19.313  20.108  0.00  0.00    +0.165 C 
ATOM      8  C   UNL     1      42.695  18.913  21.324  0.00  0.00    -0.039 C 
ATOM      9  C   UNL     1      42.373  19.826  22.505  0.00  0.00    +0.033 C 
ATOM     10  C   UNL     1      42.224  17.489  21.717  0.00  0.00    +0.015 C 
ATOM     11  C   UNL     1      46.200  19.737  19.855  0.00  0.00    +0.039 C 
ATOM     12  C   UNL     1      46.132  18.622  18.804  0.00  0.00    +0.009 C 
ATOM     13  C   UNL     1      47.517  18.175  18.359  0.00  0.00    +0.025 C 
ATOM     14  C   UNL     1      48.588  19.020  19.023  0.00  0.00    +0.141 C 
ATOM     15  C   UNL     1      48.507  18.954  20.540  0.00  0.00    -0.040 C 
ATOM     16  C   UNL     1      48.850  17.555  21.063  0.00  0.00    +0.029 C 
ATOM     17  C   UNL     1      49.516  19.968  21.106  0.00  0.00    +0.027 C 
ATOM     18  C   UNL     1      50.891  19.801  20.435  0.00  0.00    +0.024 C 
ATOM     19  C   UNL     1      50.729  19.954  18.927  0.00  0.00    -0.080 C 
ATOM     20  C   UNL     1      49.710  21.057  18.622  0.00  0.00    +0.197 C 
ATOM     21  C   UNL     1      52.043  20.050  18.196  0.00  0.00    +0.185 C 
ATOM     24  C   UNL     1      52.856  18.773  18.436  0.00  0.00    -0.002 C 
ATOM     25  C   UNL     1      52.089  17.511  18.063  0.00  0.00    -0.060 C 
ATOM     26  C   UNL     1      52.898  16.295  18.538  0.00  0.00    +0.023 C 
ATOM     27  C   UNL     1      51.925  17.422  16.550  0.00  0.00    +0.022 C 
ATOM     28  C   UNL     1      50.713  17.468  18.753  0.00  0.00    +0.051 C 
ATOM     29  O   UNL     1      48.413  20.417  18.642  0.00  0.00    -0.367 OA
ATOM     30  C   UNL     1      49.950  18.713  18.410  0.00  0.00    -0.019 C 
ATOM     31  C   UNL     1      47.085  19.320  21.020  0.00  0.00    -0.022 C 
ATOM     32  C   UNL     1      47.233  20.448  22.054  0.00  0.00    +0.018 C 
ATOM     33  C   UNL     1      46.441  18.141  21.757  0.00  0.00    +0.016 C 
ATOM     34  C   UNL     1      45.031  18.536  22.239  0.00  0.00    +0.008 C 
ATOM     35  C   UNL     1      44.176  18.844  21.016  0.00  0.00    +0.001 C 
ENDROOT
BRANCH   5   6
ATOM      6  O   UNL     1      40.547  19.681  20.547  0.00  0.00    -0.566 OA
ATOM      7  H   UNL     1      40.538  20.359  21.237  0.00  0.00    +0.374 HD
ENDBRANCH   5   6
BRANCH  21  22
ATOM     22  O   UNL     1      52.775  21.188  18.669  0.00  0.00    -0.564 OA
ATOM     23  H   UNL     1      53.639  20.971  19.045  0.00  0.00    +0.377 HD
ENDBRANCH  21  22
TORSDOF 2
ENDMDL
MODEL 5
REMARK VINA RESULT:      -6.6      2.664      4.186
REMARK  Name = ZINC95486074
REMARK  9 active torsions:
REMARK  status: ('A' for Active; 'I' for Inactive)
REMARK    1  A    between atoms: C1_1  and  C2_2
REMARK    2  A    between atoms: C5_5  and  O3_38
REMARK    3  A    between atoms: C6_7  and  C29_36
REMARK    4  A    between atoms: C6_7  and  C30_37
REMARK    5  A    between atoms: C10_12  and  C28_35
REMARK    6  A    between atoms: C15_18  and  C27_34
REMARK    7  A    between atoms: C21_25  and  C24_30
REMARK    8  A    between atoms: C21_25  and  C25_31
REMARK    9  A    between atoms: C23_27  and  O1_29
REMARK                            x       y       z     vdW  Elec       q    Type
REMARK                         _______ _______ _______ _____ _____    ______ ____
ROOT
ATOM      1  C   UNL     1      47.008  13.292  18.588  0.00  0.00    +0.024 C 
ATOM      2  C   UNL     1      47.537  14.516  17.851  0.00  0.00    -0.039 C 
ATOM      3  C   UNL     1      46.963  14.457  16.419  0.00  0.00    +0.020 C 
ATOM      4  C   UNL     1      47.438  13.169  15.750  0.00  0.00    -0.023 C 
ATOM      5  C   UNL     1      48.955  13.158  15.624  0.00  0.00    +0.165 C 
ATOM      8  C   UNL     1      49.673  13.424  16.945  0.00  0.00    -0.039 C 
ATOM      9  C   UNL     1      49.782  12.133  17.755  0.00  0.00    +0.033 C 
ATOM     10  C   UNL     1      51.119  13.842  16.572  0.00  0.00    +0.015 C 
ATOM     11  C   UNL     1      47.035  15.816  18.508  0.00  0.00    +0.039 C 
ATOM     12  C   UNL     1      47.283  16.924  17.477  0.00  0.00    +0.009 C 
ATOM     13  C   UNL     1      46.894  18.295  18.011  0.00  0.00    +0.025 C 
ATOM     14  C   UNL     1      46.287  18.174  19.397  0.00  0.00    +0.141 C 
ATOM     15  C   UNL     1      47.237  17.508  20.380  0.00  0.00    -0.040 C 
ATOM     16  C   UNL     1      48.466  18.381  20.657  0.00  0.00    +0.029 C 
ATOM     17  C   UNL     1      46.468  17.282  21.693  0.00  0.00    +0.027 C 
ATOM     18  C   UNL     1      45.744  18.569  22.127  0.00  0.00    +0.024 C 
ATOM     19  C   UNL     1      44.816  19.020  21.005  0.00  0.00    -0.080 C 
ATOM     20  C   UNL     1      44.161  17.799  20.350  0.00  0.00    +0.197 C 
ATOM     21  C   UNL     1      43.881  20.127  21.417  0.00  0.00    +0.185 C 
ATOM     24  C   UNL     1      44.698  21.351  21.847  0.00  0.00    -0.002 C 
ATOM     25  C   UNL     1      45.681  21.805  20.776  0.00  0.00    -0.060 C 
ATOM     26  C   UNL     1      46.589  22.887  21.380  0.00  0.00    +0.023 C 
ATOM     27  C   UNL     1      44.931  22.409  19.593  0.00  0.00    +0.022 C 
ATOM     28  C   UNL     1      46.573  20.641  20.305  0.00  0.00    +0.051 C 
ATOM     29  O   UNL     1      45.085  17.350  19.332  0.00  0.00    -0.367 OA
ATOM     30  C   UNL     1      45.704  19.515  19.831  0.00  0.00    -0.019 C 
ATOM     31  C   UNL     1      47.719  16.149  19.825  0.00  0.00    -0.022 C 
ATOM     32  C   UNL     1      47.424  15.091  20.902  0.00  0.00    +0.018 C 
ATOM     33  C   UNL     1      49.239  16.151  19.627  0.00  0.00    +0.016 C 
ATOM     34  C   UNL     1      49.696  14.780  19.090  0.00  0.00    +0.008 C 
ATOM     35  C   UNL     1      49.049  14.561  17.727  0.00  0.00    +0.001 C 
ENDROOT
BRANCH   5   6
ATOM      6  O   UNL     1      49.376  11.885  15.115  0.00  0.00    -0.566 OA
ATOM      7  H   UNL     1      49.260  11.155  15.739  0.00  0.00    +0.374 HD
ENDBRANCH   5   6
BRANCH  21  22
ATOM     22  O   UNL     1      43.060  19.685  22.505  0.00  0.00    -0.564 OA
ATOM     23  H   UNL     1      42.243  19.250  22.229  0.00  0.00    +0.377 HD
ENDBRANCH  21  22
TORSDOF 2
ENDMDL
MODEL 6
REMARK VINA RESULT:      -6.4      3.048      7.372
REMARK  Name = ZINC95486074
REMARK  9 active torsions:
REMARK  status: ('A' for Active; 'I' for Inactive)
REMARK    1  A    between atoms: C1_1  and  C2_2
REMARK    2  A    between atoms: C5_5  and  O3_38
REMARK    3  A    between atoms: C6_7  and  C29_36
REMARK    4  A    between atoms: C6_7  and  C30_37
REMARK    5  A    between atoms: C10_12  and  C28_35
REMARK    6  A    between atoms: C15_18  and  C27_34
REMARK    7  A    between atoms: C21_25  and  C24_30
REMARK    8  A    between atoms: C21_25  and  C25_31
REMARK    9  A    between atoms: C23_27  and  O1_29
REMARK                            x       y       z     vdW  Elec       q    Type
REMARK                         _______ _______ _______ _____ _____    ______ ____
ROOT
ATOM      1  C   UNL     1      44.062  19.376  19.479  0.00  0.00    +0.024 C 
ATOM      2  C   UNL     1      45.218  19.048  20.415  0.00  0.00    -0.039 C 
ATOM      3  C   UNL     1      44.621  18.916  21.832  0.00  0.00    +0.020 C 
ATOM      4  C   UNL     1      43.966  20.241  22.217  0.00  0.00    -0.023 C 
ATOM      5  C   UNL     1      45.002  21.356  22.270  0.00  0.00    +0.165 C 
ATOM      8  C   UNL     1      45.835  21.468  20.995  0.00  0.00    -0.039 C 
ATOM      9  C   UNL     1      45.082  22.287  19.946  0.00  0.00    +0.033 C 
ATOM     10  C   UNL     1      47.097  22.282  21.377  0.00  0.00    +0.015 C 
ATOM     11  C   UNL     1      45.861  17.698  20.046  0.00  0.00    +0.039 C 
ATOM     12  C   UNL     1      46.708  17.295  21.260  0.00  0.00    +0.009 C 
ATOM     13  C   UNL     1      47.466  15.998  21.020  0.00  0.00    +0.025 C 
ATOM     14  C   UNL     1      47.108  15.414  19.666  0.00  0.00    +0.141 C 
ATOM     15  C   UNL     1      47.404  16.382  18.530  0.00  0.00    -0.040 C 
ATOM     16  C   UNL     1      48.909  16.623  18.373  0.00  0.00    +0.029 C 
ATOM     17  C   UNL     1      46.851  15.765  17.234  0.00  0.00    +0.027 C 
ATOM     18  C   UNL     1      47.305  14.302  17.090  0.00  0.00    +0.024 C 
ATOM     19  C   UNL     1      46.856  13.520  18.319  0.00  0.00    -0.080 C 
ATOM     20  C   UNL     1      45.463  13.988  18.754  0.00  0.00    +0.197 C 
ATOM     21  C   UNL     1      47.035  12.031  18.173  0.00  0.00    +0.185 C 
ATOM     24  C   UNL     1      48.518  11.714  17.952  0.00  0.00    -0.002 C 
ATOM     25  C   UNL     1      49.409  12.288  19.045  0.00  0.00    -0.060 C 
ATOM     26  C   UNL     1      50.874  12.103  18.623  0.00  0.00    +0.023 C 
ATOM     27  C   UNL     1      49.186  11.540  20.355  0.00  0.00    +0.022 C 
ATOM     28  C   UNL     1      49.154  13.794  19.241  0.00  0.00    +0.051 C 
ATOM     29  O   UNL     1      45.679  15.124  19.623  0.00  0.00    -0.367 OA
ATOM     30  C   UNL     1      47.699  14.016  19.526  0.00  0.00    -0.019 C 
ATOM     31  C   UNL     1      46.716  17.741  18.788  0.00  0.00    -0.022 C 
ATOM     32  C   UNL     1      45.878  18.068  17.541  0.00  0.00    +0.018 C 
ATOM     33  C   UNL     1      47.755  18.860  18.915  0.00  0.00    +0.016 C 
ATOM     34  C   UNL     1      47.044  20.207  19.155  0.00  0.00    +0.008 C 
ATOM     35  C   UNL     1      46.290  20.121  20.477  0.00  0.00    +0.001 C 
ENDROOT
BRANCH   5   6
ATOM      6  O   UNL     1      44.338  22.605  22.503  0.00  0.00    -0.566 OA
ATOM      7  H   UNL     1      44.761  23.157  23.175  0.00  0.00    +0.374 HD
ENDBRANCH   5   6
BRANCH  21  22
ATOM     22  O   UNL     1      46.267  11.561  17.057  0.00  0.00    -0.564 OA
ATOM     23  H   UNL     1      46.175  10.600  17.020  0.00  0.00    +0.377 HD
ENDBRANCH  21  22
TORSDOF 2
ENDMDL
MODEL 7
REMARK VINA RESULT:      -6.4      1.934      3.061
REMARK  Name = ZINC95486074
REMARK  9 active torsions:
REMARK  status: ('A' for Active; 'I' for Inactive)
REMARK    1  A    between atoms: C1_1  and  C2_2
REMARK    2  A    between atoms: C5_5  and  O3_38
REMARK    3  A    between atoms: C6_7  and  C29_36
REMARK    4  A    between atoms: C6_7  and  C30_37
REMARK    5  A    between atoms: C10_12  and  C28_35
REMARK    6  A    between atoms: C15_18  and  C27_34
REMARK    7  A    between atoms: C21_25  and  C24_30
REMARK    8  A    between atoms: C21_25  and  C25_31
REMARK    9  A    between atoms: C23_27  and  O1_29
REMARK                            x       y       z     vdW  Elec       q    Type
REMARK                         _______ _______ _______ _____ _____    ______ ____
ROOT
ATOM      1  C   UNL     1      51.161  19.087  20.775  0.00  0.00    +0.024 C 
ATOM      2  C   UNL     1      50.133  17.967  20.674  0.00  0.00    -0.039 C 
ATOM      3  C   UNL     1      50.166  17.208  22.018  0.00  0.00    +0.020 C 
ATOM      4  C   UNL     1      51.569  16.644  22.231  0.00  0.00    -0.023 C 
ATOM      5  C   UNL     1      51.914  15.638  21.142  0.00  0.00    +0.165 C 
ATOM      8  C   UNL     1      51.717  16.186  19.729  0.00  0.00    -0.039 C 
ATOM      9  C   UNL     1      52.943  16.993  19.302  0.00  0.00    +0.033 C 
ATOM     10  C   UNL     1      51.646  14.950  18.796  0.00  0.00    +0.015 C 
ATOM     11  C   UNL     1      48.713  18.536  20.488  0.00  0.00    +0.039 C 
ATOM     12  C   UNL     1      47.757  17.378  20.802  0.00  0.00    +0.009 C 
ATOM     13  C   UNL     1      46.302  17.770  20.597  0.00  0.00    +0.025 C 
ATOM     14  C   UNL     1      46.193  19.234  20.215  0.00  0.00    +0.141 C 
ATOM     15  C   UNL     1      46.978  19.554  18.951  0.00  0.00    -0.040 C 
ATOM     16  C   UNL     1      46.372  18.869  17.722  0.00  0.00    +0.029 C 
ATOM     17  C   UNL     1      46.942  21.079  18.753  0.00  0.00    +0.027 C 
ATOM     18  C   UNL     1      45.503  21.610  18.879  0.00  0.00    +0.024 C 
ATOM     19  C   UNL     1      44.943  21.209  20.238  0.00  0.00    -0.080 C 
ATOM     20  C   UNL     1      46.037  21.321  21.305  0.00  0.00    +0.197 C 
ATOM     21  C   UNL     1      43.635  21.883  20.563  0.00  0.00    +0.185 C 
ATOM     24  C   UNL     1      42.588  21.498  19.512  0.00  0.00    -0.002 C 
ATOM     25  C   UNL     1      42.430  19.991  19.365  0.00  0.00    -0.060 C 
ATOM     26  C   UNL     1      41.529  19.713  18.154  0.00  0.00    +0.023 C 
ATOM     27  C   UNL     1      41.764  19.407  20.607  0.00  0.00    +0.022 C 
ATOM     28  C   UNL     1      43.788  19.307  19.118  0.00  0.00    +0.051 C 
ATOM     29  O   UNL     1      46.743  20.059  21.285  0.00  0.00    -0.367 OA
ATOM     30  C   UNL     1      44.732  19.670  20.225  0.00  0.00    -0.019 C 
ATOM     31  C   UNL     1      48.444  19.088  19.097  0.00  0.00    -0.022 C 
ATOM     32  C   UNL     1      49.337  20.301  18.784  0.00  0.00    +0.018 C 
ATOM     33  C   UNL     1      48.781  18.022  18.049  0.00  0.00    +0.016 C 
ATOM     34  C   UNL     1      50.252  17.587  18.203  0.00  0.00    +0.008 C 
ATOM     35  C   UNL     1      50.422  16.956  19.580  0.00  0.00    +0.001 C 
ENDROOT
BRANCH   5   6
ATOM      6  O   UNL     1      53.280  15.229  21.294  0.00  0.00    -0.566 OA
ATOM      7  H   UNL     1      53.495  14.898  22.177  0.00  0.00    +0.374 HD
ENDBRANCH   5   6
BRANCH  21  22
ATOM     22  O   UNL     1      43.814  23.305  20.572  0.00  0.00    -0.564 OA
ATOM     23  H   UNL     1      43.254  23.767  21.209  0.00  0.00    +0.377 HD
ENDBRANCH  21  22
TORSDOF 2
ENDMDL
MODEL 8
REMARK VINA RESULT:      -6.3      2.923      7.340
REMARK  Name = ZINC95486074
REMARK  9 active torsions:
REMARK  status: ('A' for Active; 'I' for Inactive)
REMARK    1  A    between atoms: C1_1  and  C2_2
REMARK    2  A    between atoms: C5_5  and  O3_38
REMARK    3  A    between atoms: C6_7  and  C29_36
REMARK    4  A    between atoms: C6_7  and  C30_37
REMARK    5  A    between atoms: C10_12  and  C28_35
REMARK    6  A    between atoms: C15_18  and  C27_34
REMARK    7  A    between atoms: C21_25  and  C24_30
REMARK    8  A    between atoms: C21_25  and  C25_31
REMARK    9  A    between atoms: C23_27  and  O1_29
REMARK                            x       y       z     vdW  Elec       q    Type
REMARK                         _______ _______ _______ _____ _____    ______ ____
ROOT
ATOM      1  C   UNL     1      45.772  18.634  21.913  0.00  0.00    +0.024 C 
ATOM      2  C   UNL     1      46.708  19.034  20.780  0.00  0.00    -0.039 C 
ATOM      3  C   UNL     1      47.906  19.762  21.426  0.00  0.00    +0.020 C 
ATOM      4  C   UNL     1      47.392  20.992  22.170  0.00  0.00    -0.023 C 
ATOM      5  C   UNL     1      46.743  21.972  21.203  0.00  0.00    +0.165 C 
ATOM      8  C   UNL     1      45.668  21.333  20.326  0.00  0.00    -0.039 C 
ATOM      9  C   UNL     1      44.340  21.276  21.080  0.00  0.00    +0.033 C 
ATOM     10  C   UNL     1      45.463  22.296  19.128  0.00  0.00    +0.015 C 
ATOM     11  C   UNL     1      47.250  17.792  20.047  0.00  0.00    +0.039 C 
ATOM     12  C   UNL     1      48.451  18.283  19.229  0.00  0.00    +0.009 C 
ATOM     13  C   UNL     1      49.061  17.171  18.389  0.00  0.00    +0.025 C 
ATOM     14  C   UNL     1      48.357  15.853  18.658  0.00  0.00    +0.141 C 
ATOM     15  C   UNL     1      46.866  15.935  18.370  0.00  0.00    -0.040 C 
ATOM     16  C   UNL     1      46.589  16.132  16.876  0.00  0.00    +0.029 C 
ATOM     17  C   UNL     1      46.228  14.613  18.834  0.00  0.00    +0.027 C 
ATOM     18  C   UNL     1      47.017  13.408  18.292  0.00  0.00    +0.024 C 
ATOM     19  C   UNL     1      48.468  13.520  18.746  0.00  0.00    -0.080 C 
ATOM     20  C   UNL     1      48.524  14.058  20.179  0.00  0.00    +0.197 C 
ATOM     21  C   UNL     1      49.272  12.274  18.477  0.00  0.00    +0.185 C 
ATOM     24  C   UNL     1      49.290  11.993  16.970  0.00  0.00    -0.002 C 
ATOM     25  C   UNL     1      49.793  13.180  16.159  0.00  0.00    -0.060 C 
ATOM     26  C   UNL     1      49.571  12.877  14.670  0.00  0.00    +0.023 C 
ATOM     27  C   UNL     1      51.286  13.384  16.393  0.00  0.00    +0.022 C 
ATOM     28  C   UNL     1      49.018  14.465  16.507  0.00  0.00    +0.051 C 
ATOM     29  O   UNL     1      48.506  15.499  20.065  0.00  0.00    -0.367 OA
ATOM     30  C   UNL     1      49.109  14.712  17.983  0.00  0.00    -0.019 C 
ATOM     31  C   UNL     1      46.231  17.111  19.144  0.00  0.00    -0.022 C 
ATOM     32  C   UNL     1      45.051  16.541  19.948  0.00  0.00    +0.018 C 
ATOM     33  C   UNL     1      45.637  18.140  18.176  0.00  0.00    +0.016 C 
ATOM     34  C   UNL     1      44.997  19.295  18.972  0.00  0.00    +0.008 C 
ATOM     35  C   UNL     1      46.091  19.988  19.774  0.00  0.00    +0.001 C 
ENDROOT
BRANCH   5   6
ATOM      6  O   UNL     1      46.156  23.049  21.945  0.00  0.00    -0.566 OA
ATOM      7  H   UNL     1      45.206  22.951  22.096  0.00  0.00    +0.374 HD
ENDBRANCH   5   6
BRANCH  21  22
ATOM     22  O   UNL     1      48.686  11.164  19.170  0.00  0.00    -0.564 OA
ATOM     23  H   UNL     1      49.314  10.464  19.391  0.00  0.00    +0.377 HD
ENDBRANCH  21  22
TORSDOF 2
ENDMDL
MODEL 9
REMARK VINA RESULT:      -6.1      3.382      6.164
REMARK  Name = ZINC95486074
REMARK  9 active torsions:
REMARK  status: ('A' for Active; 'I' for Inactive)
REMARK    1  A    between atoms: C1_1  and  C2_2
REMARK    2  A    between atoms: C5_5  and  O3_38
REMARK    3  A    between atoms: C6_7  and  C29_36
REMARK    4  A    between atoms: C6_7  and  C30_37
REMARK    5  A    between atoms: C10_12  and  C28_35
REMARK    6  A    between atoms: C15_18  and  C27_34
REMARK    7  A    between atoms: C21_25  and  C24_30
REMARK    8  A    between atoms: C21_25  and  C25_31
REMARK    9  A    between atoms: C23_27  and  O1_29
REMARK                            x       y       z     vdW  Elec       q    Type
REMARK                         _______ _______ _______ _____ _____    ______ ____
ROOT
ATOM      1  C   UNL     1      49.043  12.869  15.054  0.00  0.00    +0.024 C 
ATOM      2  C   UNL     1      49.998  13.484  16.070  0.00  0.00    -0.039 C 
ATOM      3  C   UNL     1      51.172  14.088  15.271  0.00  0.00    +0.020 C 
ATOM      4  C   UNL     1      51.857  12.974  14.482  0.00  0.00    -0.023 C 
ATOM      5  C   UNL     1      52.447  11.934  15.424  0.00  0.00    +0.165 C 
ATOM      8  C   UNL     1      51.437  11.394  16.436  0.00  0.00    -0.039 C 
ATOM      9  C   UNL     1      50.607  10.277  15.804  0.00  0.00    +0.033 C 
ATOM     10  C   UNL     1      52.271  10.745  17.570  0.00  0.00    +0.015 C 
ATOM     11  C   UNL     1      49.318  14.627  16.846  0.00  0.00    +0.039 C 
ATOM     12  C   UNL     1      50.454  15.407  17.519  0.00  0.00    +0.009 C 
ATOM     13  C   UNL     1      49.930  16.543  18.385  0.00  0.00    +0.025 C 
ATOM     14  C   UNL     1      48.420  16.642  18.278  0.00  0.00    +0.141 C 
ATOM     15  C   UNL     1      47.734  15.346  18.685  0.00  0.00    -0.040 C 
ATOM     16  C   UNL     1      47.918  15.055  20.178  0.00  0.00    +0.029 C 
ATOM     17  C   UNL     1      46.233  15.497  18.379  0.00  0.00    +0.027 C 
ATOM     18  C   UNL     1      45.693  16.824  18.942  0.00  0.00    +0.024 C 
ATOM     19  C   UNL     1      46.503  17.976  18.358  0.00  0.00    -0.080 C 
ATOM     20  C   UNL     1      46.828  17.691  16.888  0.00  0.00    +0.197 C 
ATOM     21  C   UNL     1      45.906  19.329  18.651  0.00  0.00    +0.185 C 
ATOM     24  C   UNL     1      45.844  19.542  20.167  0.00  0.00    -0.002 C 
ATOM     25  C   UNL     1      47.198  19.361  20.841  0.00  0.00    -0.060 C 
ATOM     26  C   UNL     1      46.989  19.382  22.362  0.00  0.00    +0.023 C 
ATOM     27  C   UNL     1      48.131  20.507  20.465  0.00  0.00    +0.022 C 
ATOM     28  C   UNL     1      47.834  18.009  20.464  0.00  0.00    +0.051 C 
ATOM     29  O   UNL     1      48.046  16.911  16.894  0.00  0.00    -0.367 OA
ATOM     30  C   UNL     1      47.929  17.908  18.971  0.00  0.00    -0.019 C 
ATOM     31  C   UNL     1      48.306  14.158  17.881  0.00  0.00    -0.022 C 
ATOM     32  C   UNL     1      47.115  13.439  17.227  0.00  0.00    +0.018 C 
ATOM     33  C   UNL     1      48.966  13.138  18.816  0.00  0.00    +0.016 C 
ATOM     34  C   UNL     1      49.514  11.956  17.992  0.00  0.00    +0.008 C 
ATOM     35  C   UNL     1      50.588  12.486  17.050  0.00  0.00    +0.001 C 
ENDROOT
BRANCH   5   6
ATOM      6  O   UNL     1      52.963  10.840  14.655  0.00  0.00    -0.566 OA
ATOM      7  H   UNL     1      52.483  10.010  14.780  0.00  0.00    +0.374 HD
ENDBRANCH   5   6
BRANCH  21  22
ATOM     22  O   UNL     1      44.586  19.403  18.096  0.00  0.00    -0.564 OA
ATOM     23  H   UNL     1      43.903  19.002  18.651  0.00  0.00    +0.377 HD
ENDBRANCH  21  22
TORSDOF 2
ENDMDL
