MODEL 1
REMARK VINA RESULT:      -7.5      0.000      0.000
REMARK  Name = ZINC85815475
REMARK  17 active torsions:
REMARK  status: ('A' for Active; 'I' for Inactive)
REMARK    1  A    between atoms: C3_3  and  O16_49
REMARK    2  A    between atoms: C4_4  and  O15_48
REMARK    3  A    between atoms: C6_6  and  C7_7
REMARK    4  A    between atoms: C8_8  and  O5_20
REMARK    5  A    between atoms: C11_12  and  O4_19
REMARK    6  A    between atoms: C13_14  and  O3_18
REMARK    7  A    between atoms: O5_20  and  C16_21
REMARK    8  A    between atoms: C17_23  and  O14_47
REMARK    9  A    between atoms: C18_25  and  O13_46
REMARK   10  A    between atoms: C19_27  and  O12_45
REMARK   11  A    between atoms: C20_29  and  C21_32
REMARK   12  A    between atoms: C21_32  and  O7_33
REMARK   13  A    between atoms: O7_33  and  C22_34
REMARK   14  A    between atoms: C22_34  and  C23_36
REMARK   15  A    between atoms: C25_38  and  O11_44
REMARK   16  A    between atoms: C26_39  and  O10_43
REMARK   17  A    between atoms: C27_40  and  O9_42
REMARK                            x       y       z     vdW  Elec       q    Type
REMARK                         _______ _______ _______ _____ _____    ______ ____
ROOT
ATOM     14  C   UNL     1      49.374  18.572  18.300  0.00  0.00    +0.332 C 
ATOM     15  C   UNL     1      50.687  18.974  18.977  0.00  0.00    +0.147 C 
ATOM     18  C   UNL     1      51.285  17.751  19.680  0.00  0.00    +0.168 C 
ATOM     21  C   UNL     1      51.478  16.630  18.655  0.00  0.00    +0.167 C 
ATOM     24  C   UNL     1      50.134  16.318  17.992  0.00  0.00    +0.192 C 
ATOM     41  O   UNL     1      49.619  17.505  17.383  0.00  0.00    -0.353 OA
ENDROOT
BRANCH  15  16
ATOM     16  O   UNL     1      51.603  19.455  17.991  0.00  0.00    -0.515 OA
ATOM     17  H   UNL     1      51.256  19.436  17.089  0.00  0.00    +0.377 HD
ENDBRANCH  15  16
BRANCH  18  19
ATOM     19  O   UNL     1      52.547  18.099  20.254  0.00  0.00    -0.551 OA
ATOM     20  H   UNL     1      53.226  17.418  20.152  0.00  0.00    +0.386 HD
ENDBRANCH  18  19
BRANCH  21  22
ATOM     22  O   UNL     1      52.417  17.047  17.662  0.00  0.00    -0.531 OA
ATOM     23  H   UNL     1      52.458  18.005  17.537  0.00  0.00    +0.386 HD
ENDBRANCH  21  22
BRANCH  14  13
ATOM     13  O   UNL     1      48.439  18.142  19.293  0.00  0.00    -0.306 OA
BRANCH  13  12
ATOM     11  C   UNL     1      46.141  17.940  18.783  0.00  0.00    +0.188 A 
ATOM     12  C   UNL     1      47.190  18.682  19.239  0.00  0.00    -0.075 A 
ATOM     42  C   UNL     1      46.971  20.019  19.658  0.00  0.00    +0.412 A 
ATOM     43  C   UNL     1      45.596  20.537  19.575  0.00  0.00    -0.263 A 
ATOM     44  C   UNL     1      45.287  21.847  19.967  0.00  0.00    +0.222 A 
ATOM     47  C   UNL     1      43.984  22.297  19.872  0.00  0.00    -0.053 A 
ATOM     48  C   UNL     1      42.987  21.454  19.391  0.00  0.00    +0.197 A 
ATOM     51  C   UNL     1      43.284  20.158  19.002  0.00  0.00    -0.022 A 
ATOM     52  C   UNL     1      44.586  19.688  19.089  0.00  0.00    +0.182 A 
ATOM     53  O   UNL     1      47.885  20.712  20.073  0.00  0.00    -0.445 OA
ATOM     54  O   UNL     1      44.892  18.431  18.707  0.00  0.00    -0.199 OA
BRANCH  11  10
ATOM      1  C   UNL     1      46.561  15.544  19.302  0.00  0.00    +0.081 A 
ATOM      2  C   UNL     1      46.791  14.246  18.895  0.00  0.00    +0.006 A 
ATOM      3  C   UNL     1      46.850  13.939  17.544  0.00  0.00    +0.110 A 
ATOM      6  C   UNL     1      46.679  14.941  16.590  0.00  0.00    +0.080 A 
ATOM      9  C   UNL     1      46.448  16.243  16.989  0.00  0.00    +0.063 A 
ATOM     10  C   UNL     1      46.388  16.553  18.351  0.00  0.00    -0.062 A 
BRANCH   3   4
ATOM      4  O   UNL     1      47.078  12.659  17.149  0.00  0.00    -0.484 OA
ATOM      5  H   UNL     1      46.275  12.128  17.055  0.00  0.00    +0.395 HD
ENDBRANCH   3   4
BRANCH   6   7
ATOM      7  O   UNL     1      46.738  14.636  15.266  0.00  0.00    -0.480 OA
ATOM      8  H   UNL     1      47.462  14.039  15.031  0.00  0.00    +0.391 HD
ENDBRANCH   6   7
ENDBRANCH  11  10
BRANCH  44  45
ATOM     45  O   UNL     1      46.261  22.667  20.436  0.00  0.00    -0.472 OA
ATOM     46  H   UNL     1      45.969  23.261  21.141  0.00  0.00    +0.403 HD
ENDBRANCH  44  45
BRANCH  48  49
ATOM     49  O   UNL     1      41.710  21.906  19.303  0.00  0.00    -0.486 OA
ATOM     50  H   UNL     1      41.089  21.449  19.887  0.00  0.00    +0.404 HD
ENDBRANCH  48  49
ENDBRANCH  13  12
ENDBRANCH  14  13
BRANCH  24  25
ATOM     25  C   UNL     1      50.330  15.240  16.924  0.00  0.00    +0.260 C 
BRANCH  25  26
ATOM     26  O   UNL     1      51.375  14.353  17.329  0.00  0.00    -0.337 OA
BRANCH  26  27
ATOM     27  C   UNL     1      51.550  13.238  16.593  0.00  0.00    +0.513 C 
ATOM     40  O   UNL     1      52.134  12.283  17.066  0.00  0.00    -0.493 OA
BRANCH  27  28
ATOM     28  C   UNL     1      51.033  13.178  15.213  0.00  0.00    -0.092 A 
ATOM     29  C   UNL     1      51.879  13.455  14.136  0.00  0.00    +0.060 A 
ATOM     30  C   UNL     1      51.391  13.397  12.844  0.00  0.00    +0.087 A 
ATOM     33  C   UNL     1      50.059  13.064  12.615  0.00  0.00    +0.092 A 
ATOM     36  C   UNL     1      49.214  12.788  13.687  0.00  0.00    +0.090 A 
ATOM     39  C   UNL     1      49.698  12.838  14.981  0.00  0.00    +0.080 A 
BRANCH  30  31
ATOM     31  O   UNL     1      52.213  13.666  11.794  0.00  0.00    -0.477 OA
ATOM     32  H   UNL     1      52.288  14.607  11.584  0.00  0.00    +0.389 HD
ENDBRANCH  30  31
BRANCH  33  34
ATOM     34  O   UNL     1      49.582  13.009  11.344  0.00  0.00    -0.472 OA
ATOM     35  H   UNL     1      50.262  13.113  10.664  0.00  0.00    +0.391 HD
ENDBRANCH  33  34
BRANCH  36  37
ATOM     37  O   UNL     1      47.912  12.464  13.460  0.00  0.00    -0.478 OA
ATOM     38  H   UNL     1      47.358  12.488  14.252  0.00  0.00    +0.393 HD
ENDBRANCH  36  37
ENDBRANCH  27  28
ENDBRANCH  26  27
ENDBRANCH  25  26
ENDBRANCH  24  25
TORSDOF 17
ENDMDL
MODEL 2
REMARK VINA RESULT:      -7.2      2.569      8.189
REMARK  Name = ZINC85815475
REMARK  17 active torsions:
REMARK  status: ('A' for Active; 'I' for Inactive)
REMARK    1  A    between atoms: C3_3  and  O16_49
REMARK    2  A    between atoms: C4_4  and  O15_48
REMARK    3  A    between atoms: C6_6  and  C7_7
REMARK    4  A    between atoms: C8_8  and  O5_20
REMARK    5  A    between atoms: C11_12  and  O4_19
REMARK    6  A    between atoms: C13_14  and  O3_18
REMARK    7  A    between atoms: O5_20  and  C16_21
REMARK    8  A    between atoms: C17_23  and  O14_47
REMARK    9  A    between atoms: C18_25  and  O13_46
REMARK   10  A    between atoms: C19_27  and  O12_45
REMARK   11  A    between atoms: C20_29  and  C21_32
REMARK   12  A    between atoms: C21_32  and  O7_33
REMARK   13  A    between atoms: O7_33  and  C22_34
REMARK   14  A    between atoms: C22_34  and  C23_36
REMARK   15  A    between atoms: C25_38  and  O11_44
REMARK   16  A    between atoms: C26_39  and  O10_43
REMARK   17  A    between atoms: C27_40  and  O9_42
REMARK                            x       y       z     vdW  Elec       q    Type
REMARK                         _______ _______ _______ _____ _____    ______ ____
ROOT
ATOM     14  C   UNL     1      46.915  16.063  19.409  0.00  0.00    +0.332 C 
ATOM     15  C   UNL     1      46.407  14.674  19.804  0.00  0.00    +0.147 C 
ATOM     18  C   UNL     1      46.541  14.502  21.320  0.00  0.00    +0.168 C 
ATOM     21  C   UNL     1      45.770  15.624  22.021  0.00  0.00    +0.167 C 
ATOM     24  C   UNL     1      46.303  16.977  21.541  0.00  0.00    +0.192 C 
ATOM     41  O   UNL     1      46.177  17.059  20.119  0.00  0.00    -0.353 OA
ENDROOT
BRANCH  15  16
ATOM     16  O   UNL     1      45.035  14.544  19.427  0.00  0.00    -0.515 OA
ATOM     17  H   UNL     1      44.861  13.811  18.821  0.00  0.00    +0.377 HD
ENDBRANCH  15  16
BRANCH  18  19
ATOM     19  O   UNL     1      46.002  13.236  21.707  0.00  0.00    -0.551 OA
ATOM     20  H   UNL     1      46.672  12.561  21.884  0.00  0.00    +0.386 HD
ENDBRANCH  18  19
BRANCH  21  22
ATOM     22  O   UNL     1      44.380  15.518  21.705  0.00  0.00    -0.531 OA
ATOM     23  H   UNL     1      44.179  14.849  21.036  0.00  0.00    +0.386 HD
ENDBRANCH  21  22
BRANCH  14  13
ATOM     13  O   UNL     1      48.302  16.173  19.737  0.00  0.00    -0.306 OA
BRANCH  13  12
ATOM     11  C   UNL     1      49.616  16.450  17.794  0.00  0.00    +0.188 A 
ATOM     12  C   UNL     1      49.066  16.961  18.932  0.00  0.00    -0.075 A 
ATOM     42  C   UNL     1      49.296  18.319  19.269  0.00  0.00    +0.412 A 
ATOM     43  C   UNL     1      50.130  19.113  18.352  0.00  0.00    -0.263 A 
ATOM     44  C   UNL     1      50.409  20.462  18.607  0.00  0.00    +0.222 A 
ATOM     47  C   UNL     1      51.198  21.173  17.722  0.00  0.00    -0.053 A 
ATOM     48  C   UNL     1      51.710  20.552  16.588  0.00  0.00    +0.197 A 
ATOM     51  C   UNL     1      51.437  19.218  16.329  0.00  0.00    -0.022 A 
ATOM     52  C   UNL     1      50.649  18.488  17.205  0.00  0.00    +0.182 A 
ATOM     53  O   UNL     1      48.819  18.811  20.279  0.00  0.00    -0.445 OA
ATOM     54  O   UNL     1      50.381  17.187  16.970  0.00  0.00    -0.199 OA
BRANCH  11  10
ATOM      1  C   UNL     1      50.174  14.034  18.006  0.00  0.00    +0.081 A 
ATOM      2  C   UNL     1      49.939  12.712  17.692  0.00  0.00    +0.006 A 
ATOM      3  C   UNL     1      48.904  12.374  16.832  0.00  0.00    +0.110 A 
ATOM      6  C   UNL     1      48.096  13.367  16.282  0.00  0.00    +0.080 A 
ATOM      9  C   UNL     1      48.325  14.694  16.593  0.00  0.00    +0.063 A 
ATOM     10  C   UNL     1      49.368  15.036  17.458  0.00  0.00    -0.062 A 
BRANCH   3   4
ATOM      4  O   UNL     1      48.677  11.069  16.525  0.00  0.00    -0.484 OA
ATOM      5  H   UNL     1      48.164  10.591  17.191  0.00  0.00    +0.395 HD
ENDBRANCH   3   4
BRANCH   6   7
ATOM      7  O   UNL     1      47.082  13.031  15.440  0.00  0.00    -0.480 OA
ATOM      8  H   UNL     1      46.905  12.082  15.397  0.00  0.00    +0.391 HD
ENDBRANCH   6   7
ENDBRANCH  11  10
BRANCH  44  45
ATOM     45  O   UNL     1      49.908  21.066  19.714  0.00  0.00    -0.472 OA
ATOM     46  H   UNL     1      49.013  21.414  19.602  0.00  0.00    +0.403 HD
ENDBRANCH  44  45
BRANCH  48  49
ATOM     49  O   UNL     1      52.482  21.260  15.725  0.00  0.00    -0.486 OA
ATOM     50  H   UNL     1      53.040  21.926  16.151  0.00  0.00    +0.404 HD
ENDBRANCH  48  49
ENDBRANCH  13  12
ENDBRANCH  14  13
BRANCH  24  25
ATOM     25  C   UNL     1      45.498  18.103  22.191  0.00  0.00    +0.260 C 
BRANCH  25  26
ATOM     26  O   UNL     1      44.969  18.958  21.175  0.00  0.00    -0.337 OA
BRANCH  26  27
ATOM     27  C   UNL     1      43.630  18.964  21.018  0.00  0.00    +0.513 C 
ATOM     40  O   UNL     1      42.953  18.096  21.533  0.00  0.00    -0.493 OA
BRANCH  27  28
ATOM     28  C   UNL     1      42.987  20.025  20.221  0.00  0.00    -0.092 A 
ATOM     29  C   UNL     1      43.562  21.297  20.156  0.00  0.00    +0.060 A 
ATOM     30  C   UNL     1      42.957  22.290  19.407  0.00  0.00    +0.087 A 
ATOM     33  C   UNL     1      41.776  22.023  18.720  0.00  0.00    +0.092 A 
ATOM     36  C   UNL     1      41.201  20.757  18.784  0.00  0.00    +0.090 A 
ATOM     39  C   UNL     1      41.805  19.759  19.525  0.00  0.00    +0.080 A 
BRANCH  30  31
ATOM     31  O   UNL     1      43.516  23.528  19.343  0.00  0.00    -0.477 OA
ATOM     32  H   UNL     1      44.379  23.594  19.774  0.00  0.00    +0.389 HD
ENDBRANCH  30  31
BRANCH  33  34
ATOM     34  O   UNL     1      41.183  23.002  17.986  0.00  0.00    -0.472 OA
ATOM     35  H   UNL     1      41.789  23.474  17.400  0.00  0.00    +0.391 HD
ENDBRANCH  33  34
BRANCH  36  37
ATOM     37  O   UNL     1      40.046  20.501  18.112  0.00  0.00    -0.478 OA
ATOM     38  H   UNL     1      40.154  19.901  17.361  0.00  0.00    +0.393 HD
ENDBRANCH  36  37
ENDBRANCH  27  28
ENDBRANCH  26  27
ENDBRANCH  25  26
ENDBRANCH  24  25
TORSDOF 17
ENDMDL
MODEL 3
REMARK VINA RESULT:      -6.9      1.882      7.986
REMARK  Name = ZINC85815475
REMARK  17 active torsions:
REMARK  status: ('A' for Active; 'I' for Inactive)
REMARK    1  A    between atoms: C3_3  and  O16_49
REMARK    2  A    between atoms: C4_4  and  O15_48
REMARK    3  A    between atoms: C6_6  and  C7_7
REMARK    4  A    between atoms: C8_8  and  O5_20
REMARK    5  A    between atoms: C11_12  and  O4_19
REMARK    6  A    between atoms: C13_14  and  O3_18
REMARK    7  A    between atoms: O5_20  and  C16_21
REMARK    8  A    between atoms: C17_23  and  O14_47
REMARK    9  A    between atoms: C18_25  and  O13_46
REMARK   10  A    between atoms: C19_27  and  O12_45
REMARK   11  A    between atoms: C20_29  and  C21_32
REMARK   12  A    between atoms: C21_32  and  O7_33
REMARK   13  A    between atoms: O7_33  and  C22_34
REMARK   14  A    between atoms: C22_34  and  C23_36
REMARK   15  A    between atoms: C25_38  and  O11_44
REMARK   16  A    between atoms: C26_39  and  O10_43
REMARK   17  A    between atoms: C27_40  and  O9_42
REMARK                            x       y       z     vdW  Elec       q    Type
REMARK                         _______ _______ _______ _____ _____    ______ ____
ROOT
ATOM     14  C   UNL     1      47.873  14.699  17.250  0.00  0.00    +0.332 C 
ATOM     15  C   UNL     1      47.776  13.196  16.975  0.00  0.00    +0.147 C 
ATOM     18  C   UNL     1      47.664  12.448  18.307  0.00  0.00    +0.168 C 
ATOM     21  C   UNL     1      46.451  12.977  19.077  0.00  0.00    +0.167 C 
ATOM     24  C   UNL     1      46.600  14.489  19.271  0.00  0.00    +0.192 C 
ATOM     41  O   UNL     1      46.730  15.121  17.996  0.00  0.00    -0.353 OA
ENDROOT
BRANCH  15  16
ATOM     16  O   UNL     1      46.620  12.931  16.178  0.00  0.00    -0.515 OA
ATOM     17  H   UNL     1      46.064  13.706  16.022  0.00  0.00    +0.377 HD
ENDBRANCH  15  16
BRANCH  18  19
ATOM     19  O   UNL     1      47.500  11.050  18.057  0.00  0.00    -0.551 OA
ATOM     20  H   UNL     1      46.701  10.831  17.557  0.00  0.00    +0.386 HD
ENDBRANCH  18  19
BRANCH  21  22
ATOM     22  O   UNL     1      45.259  12.705  18.338  0.00  0.00    -0.531 OA
ATOM     23  H   UNL     1      44.968  11.784  18.386  0.00  0.00    +0.386 HD
ENDBRANCH  21  22
BRANCH  14  13
ATOM     13  O   UNL     1      49.059  14.969  18.001  0.00  0.00    -0.306 OA
BRANCH  13  12
ATOM     11  C   UNL     1      50.902  15.849  16.813  0.00  0.00    +0.188 A 
ATOM     12  C   UNL     1      49.809  16.035  17.607  0.00  0.00    -0.075 A 
ATOM     42  C   UNL     1      49.461  17.346  18.019  0.00  0.00    +0.412 A 
ATOM     43  C   UNL     1      50.315  18.451  17.555  0.00  0.00    -0.263 A 
ATOM     44  C   UNL     1      50.045  19.779  17.913  0.00  0.00    +0.222 A 
ATOM     47  C   UNL     1      50.872  20.789  17.458  0.00  0.00    -0.053 A 
ATOM     48  C   UNL     1      51.963  20.488  16.650  0.00  0.00    +0.197 A 
ATOM     51  C   UNL     1      52.235  19.177  16.291  0.00  0.00    -0.022 A 
ATOM     52  C   UNL     1      51.419  18.150  16.738  0.00  0.00    +0.182 A 
ATOM     53  O   UNL     1      48.489  17.551  18.729  0.00  0.00    -0.445 OA
ATOM     54  O   UNL     1      51.676  16.869  16.403  0.00  0.00    -0.199 OA
BRANCH  11  10
ATOM      1  C   UNL     1      51.524  13.502  17.355  0.00  0.00    +0.081 A 
ATOM      2  C   UNL     1      51.849  12.221  16.962  0.00  0.00    +0.006 A 
ATOM      3  C   UNL     1      51.906  11.899  15.613  0.00  0.00    +0.110 A 
ATOM      6  C   UNL     1      51.634  12.869  14.650  0.00  0.00    +0.080 A 
ATOM      9  C   UNL     1      51.307  14.154  15.036  0.00  0.00    +0.063 A 
ATOM     10  C   UNL     1      51.251  14.479  16.395  0.00  0.00    -0.062 A 
BRANCH   3   4
ATOM      4  O   UNL     1      52.227  10.635  15.231  0.00  0.00    -0.484 OA
ATOM      5  H   UNL     1      52.820  10.178  15.843  0.00  0.00    +0.395 HD
ENDBRANCH   3   4
BRANCH   6   7
ATOM      7  O   UNL     1      51.691  12.550  13.329  0.00  0.00    -0.480 OA
ATOM      8  H   UNL     1      50.844  12.269  12.955  0.00  0.00    +0.391 HD
ENDBRANCH   6   7
ENDBRANCH  11  10
BRANCH  44  45
ATOM     45  O   UNL     1      48.979  20.071  18.701  0.00  0.00    -0.472 OA
ATOM     46  H   UNL     1      48.464  20.832  18.400  0.00  0.00    +0.403 HD
ENDBRANCH  44  45
BRANCH  48  49
ATOM     49  O   UNL     1      52.768  21.487  16.208  0.00  0.00    -0.486 OA
ATOM     50  H   UNL     1      52.291  22.269  15.898  0.00  0.00    +0.404 HD
ENDBRANCH  48  49
ENDBRANCH  13  12
ENDBRANCH  14  13
BRANCH  24  25
ATOM     25  C   UNL     1      45.364  15.036  19.988  0.00  0.00    +0.260 C 
BRANCH  25  26
ATOM     26  O   UNL     1      45.047  16.330  19.471  0.00  0.00    -0.337 OA
BRANCH  26  27
ATOM     27  C   UNL     1      45.158  17.371  20.321  0.00  0.00    +0.513 C 
ATOM     40  O   UNL     1      45.831  17.265  21.327  0.00  0.00    -0.493 OA
BRANCH  27  28
ATOM     28  C   UNL     1      44.464  18.638  20.027  0.00  0.00    -0.092 A 
ATOM     29  C   UNL     1      45.167  19.710  19.471  0.00  0.00    +0.060 A 
ATOM     30  C   UNL     1      44.512  20.896  19.197  0.00  0.00    +0.087 A 
ATOM     33  C   UNL     1      43.154  21.024  19.475  0.00  0.00    +0.092 A 
ATOM     36  C   UNL     1      42.451  19.958  20.029  0.00  0.00    +0.090 A 
ATOM     39  C   UNL     1      43.099  18.767  20.299  0.00  0.00    +0.080 A 
BRANCH  30  31
ATOM     31  O   UNL     1      45.196  21.940  18.655  0.00  0.00    -0.477 OA
ATOM     32  H   UNL     1      45.289  21.893  17.694  0.00  0.00    +0.389 HD
ENDBRANCH  30  31
BRANCH  33  34
ATOM     34  O   UNL     1      42.514  22.192  19.204  0.00  0.00    -0.472 OA
ATOM     35  H   UNL     1      43.075  22.860  18.789  0.00  0.00    +0.391 HD
ENDBRANCH  33  34
BRANCH  36  37
ATOM     37  O   UNL     1      41.124  20.086  20.299  0.00  0.00    -0.478 OA
ATOM     38  H   UNL     1      40.563  20.106  19.512  0.00  0.00    +0.393 HD
ENDBRANCH  36  37
ENDBRANCH  27  28
ENDBRANCH  26  27
ENDBRANCH  25  26
ENDBRANCH  24  25
TORSDOF 17
ENDMDL
MODEL 4
REMARK VINA RESULT:      -6.8      2.006      3.173
REMARK  Name = ZINC85815475
REMARK  17 active torsions:
REMARK  status: ('A' for Active; 'I' for Inactive)
REMARK    1  A    between atoms: C3_3  and  O16_49
REMARK    2  A    between atoms: C4_4  and  O15_48
REMARK    3  A    between atoms: C6_6  and  C7_7
REMARK    4  A    between atoms: C8_8  and  O5_20
REMARK    5  A    between atoms: C11_12  and  O4_19
REMARK    6  A    between atoms: C13_14  and  O3_18
REMARK    7  A    between atoms: O5_20  and  C16_21
REMARK    8  A    between atoms: C17_23  and  O14_47
REMARK    9  A    between atoms: C18_25  and  O13_46
REMARK   10  A    between atoms: C19_27  and  O12_45
REMARK   11  A    between atoms: C20_29  and  C21_32
REMARK   12  A    between atoms: C21_32  and  O7_33
REMARK   13  A    between atoms: O7_33  and  C22_34
REMARK   14  A    between atoms: C22_34  and  C23_36
REMARK   15  A    between atoms: C25_38  and  O11_44
REMARK   16  A    between atoms: C26_39  and  O10_43
REMARK   17  A    between atoms: C27_40  and  O9_42
REMARK                            x       y       z     vdW  Elec       q    Type
REMARK                         _______ _______ _______ _____ _____    ______ ____
ROOT
ATOM     14  C   UNL     1      47.364  19.592  19.509  0.00  0.00    +0.332 C 
ATOM     15  C   UNL     1      48.500  20.498  19.994  0.00  0.00    +0.147 C 
ATOM     18  C   UNL     1      49.145  19.875  21.235  0.00  0.00    +0.168 C 
ATOM     21  C   UNL     1      49.634  18.465  20.889  0.00  0.00    +0.167 C 
ATOM     24  C   UNL     1      48.455  17.637  20.371  0.00  0.00    +0.192 C 
ATOM     41  O   UNL     1      47.881  18.289  19.235  0.00  0.00    -0.353 OA
ENDROOT
BRANCH  15  16
ATOM     16  O   UNL     1      49.478  20.631  18.961  0.00  0.00    -0.515 OA
ATOM     17  H   UNL     1      49.487  21.500  18.537  0.00  0.00    +0.377 HD
ENDBRANCH  15  16
BRANCH  18  19
ATOM     19  O   UNL     1      50.252  20.677  21.652  0.00  0.00    -0.551 OA
ATOM     20  H   UNL     1      50.101  21.158  22.478  0.00  0.00    +0.386 HD
ENDBRANCH  18  19
BRANCH  21  22
ATOM     22  O   UNL     1      50.644  18.544  19.881  0.00  0.00    -0.531 OA
ATOM     23  H   UNL     1      51.491  18.156  20.142  0.00  0.00    +0.386 HD
ENDBRANCH  21  22
BRANCH  14  13
ATOM     13  O   UNL     1      46.361  19.503  20.523  0.00  0.00    -0.306 OA
BRANCH  13  12
ATOM     11  C   UNL     1      44.174  18.737  20.065  0.00  0.00    +0.188 A 
ATOM     12  C   UNL     1      45.077  19.754  20.144  0.00  0.00    -0.075 A 
ATOM     42  C   UNL     1      44.670  21.076  19.830  0.00  0.00    +0.412 A 
ATOM     43  C   UNL     1      43.268  21.275  19.430  0.00  0.00    -0.263 A 
ATOM     44  C   UNL     1      42.779  22.547  19.102  0.00  0.00    +0.222 A 
ATOM     47  C   UNL     1      41.456  22.693  18.729  0.00  0.00    -0.053 A 
ATOM     48  C   UNL     1      40.617  21.584  18.682  0.00  0.00    +0.197 A 
ATOM     51  C   UNL     1      41.094  20.323  19.005  0.00  0.00    -0.022 A 
ATOM     52  C   UNL     1      42.418  20.156  19.380  0.00  0.00    +0.182 A 
ATOM     53  O   UNL     1      45.451  22.012  19.891  0.00  0.00    -0.445 OA
ATOM     54  O   UNL     1      42.897  18.935  19.691  0.00  0.00    -0.199 OA
BRANCH  11  10
ATOM      1  C   UNL     1      44.541  16.908  21.711  0.00  0.00    +0.081 A 
ATOM      2  C   UNL     1      44.953  15.628  22.017  0.00  0.00    +0.006 A 
ATOM      3  C   UNL     1      45.441  14.796  21.019  0.00  0.00    +0.110 A 
ATOM      6  C   UNL     1      45.516  15.249  19.704  0.00  0.00    +0.080 A 
ATOM      9  C   UNL     1      45.105  16.530  19.390  0.00  0.00    +0.063 A 
ATOM     10  C   UNL     1      44.614  17.369  20.394  0.00  0.00    -0.062 A 
BRANCH   3   4
ATOM      4  O   UNL     1      45.846  13.536  21.326  0.00  0.00    -0.484 OA
ATOM      5  H   UNL     1      46.800  13.450  21.460  0.00  0.00    +0.395 HD
ENDBRANCH   3   4
BRANCH   6   7
ATOM      7  O   UNL     1      45.995  14.431  18.729  0.00  0.00    -0.480 OA
ATOM      8  H   UNL     1      45.569  13.562  18.699  0.00  0.00    +0.391 HD
ENDBRANCH   6   7
ENDBRANCH  11  10
BRANCH  44  45
ATOM     45  O   UNL     1      43.599  23.627  19.150  0.00  0.00    -0.472 OA
ATOM     46  H   UNL     1      43.986  23.789  20.021  0.00  0.00    +0.403 HD
ENDBRANCH  44  45
BRANCH  48  49
ATOM     49  O   UNL     1      39.320  21.738  18.315  0.00  0.00    -0.486 OA
ATOM     50  H   UNL     1      38.808  22.306  18.908  0.00  0.00    +0.404 HD
ENDBRANCH  48  49
ENDBRANCH  13  12
ENDBRANCH  14  13
BRANCH  24  25
ATOM     25  C   UNL     1      48.947  16.246  19.967  0.00  0.00    +0.260 C 
BRANCH  25  26
ATOM     26  O   UNL     1      49.002  16.156  18.542  0.00  0.00    -0.337 OA
BRANCH  26  27
ATOM     27  C   UNL     1      50.084  15.553  18.009  0.00  0.00    +0.513 C 
ATOM     40  O   UNL     1      51.193  15.804  18.438  0.00  0.00    -0.493 OA
BRANCH  27  28
ATOM     28  C   UNL     1      49.921  14.589  16.905  0.00  0.00    -0.092 A 
ATOM     29  C   UNL     1      48.646  14.142  16.548  0.00  0.00    +0.060 A 
ATOM     30  C   UNL     1      48.496  13.239  15.513  0.00  0.00    +0.087 A 
ATOM     33  C   UNL     1      49.614  12.774  14.826  0.00  0.00    +0.092 A 
ATOM     36  C   UNL     1      50.886  13.217  15.179  0.00  0.00    +0.090 A 
ATOM     39  C   UNL     1      51.041  14.126  16.209  0.00  0.00    +0.080 A 
BRANCH  30  31
ATOM     31  O   UNL     1      47.256  12.803  15.165  0.00  0.00    -0.477 OA
ATOM     32  H   UNL     1      46.602  13.509  15.072  0.00  0.00    +0.389 HD
ENDBRANCH  30  31
BRANCH  33  34
ATOM     34  O   UNL     1      49.464  11.885  13.809  0.00  0.00    -0.472 OA
ATOM     35  H   UNL     1      49.517  12.282  12.929  0.00  0.00    +0.391 HD
ENDBRANCH  33  34
BRANCH  36  37
ATOM     37  O   UNL     1      51.976  12.761  14.506  0.00  0.00    -0.478 OA
ATOM     38  H   UNL     1      52.812  12.901  14.971  0.00  0.00    +0.393 HD
ENDBRANCH  36  37
ENDBRANCH  27  28
ENDBRANCH  26  27
ENDBRANCH  25  26
ENDBRANCH  24  25
TORSDOF 17
ENDMDL
MODEL 5
REMARK VINA RESULT:      -6.8      1.559      4.171
REMARK  Name = ZINC85815475
REMARK  17 active torsions:
REMARK  status: ('A' for Active; 'I' for Inactive)
REMARK    1  A    between atoms: C3_3  and  O16_49
REMARK    2  A    between atoms: C4_4  and  O15_48
REMARK    3  A    between atoms: C6_6  and  C7_7
REMARK    4  A    between atoms: C8_8  and  O5_20
REMARK    5  A    between atoms: C11_12  and  O4_19
REMARK    6  A    between atoms: C13_14  and  O3_18
REMARK    7  A    between atoms: O5_20  and  C16_21
REMARK    8  A    between atoms: C17_23  and  O14_47
REMARK    9  A    between atoms: C18_25  and  O13_46
REMARK   10  A    between atoms: C19_27  and  O12_45
REMARK   11  A    between atoms: C20_29  and  C21_32
REMARK   12  A    between atoms: C21_32  and  O7_33
REMARK   13  A    between atoms: O7_33  and  C22_34
REMARK   14  A    between atoms: C22_34  and  C23_36
REMARK   15  A    between atoms: C25_38  and  O11_44
REMARK   16  A    between atoms: C26_39  and  O10_43
REMARK   17  A    between atoms: C27_40  and  O9_42
REMARK                            x       y       z     vdW  Elec       q    Type
REMARK                         _______ _______ _______ _____ _____    ______ ____
ROOT
ATOM     14  C   UNL     1      46.624  15.706  19.998  0.00  0.00    +0.332 C 
ATOM     15  C   UNL     1      45.519  14.682  19.720  0.00  0.00    +0.147 C 
ATOM     18  C   UNL     1      45.782  14.015  18.366  0.00  0.00    +0.168 C 
ATOM     21  C   UNL     1      47.174  13.378  18.385  0.00  0.00    +0.167 C 
ATOM     24  C   UNL     1      48.215  14.452  18.714  0.00  0.00    +0.192 C 
ATOM     41  O   UNL     1      47.894  15.054  19.970  0.00  0.00    -0.353 OA
ENDROOT
BRANCH  15  16
ATOM     16  O   UNL     1      45.518  13.691  20.750  0.00  0.00    -0.515 OA
ATOM     17  H   UNL     1      45.108  13.983  21.576  0.00  0.00    +0.377 HD
ENDBRANCH  15  16
BRANCH  18  19
ATOM     19  O   UNL     1      44.796  13.007  18.132  0.00  0.00    -0.551 OA
ATOM     20  H   UNL     1      44.593  12.467  18.908  0.00  0.00    +0.386 HD
ENDBRANCH  18  19
BRANCH  21  22
ATOM     22  O   UNL     1      47.216  12.350  19.378  0.00  0.00    -0.531 OA
ATOM     23  H   UNL     1      46.347  12.000  19.618  0.00  0.00    +0.386 HD
ENDBRANCH  21  22
BRANCH  14  13
ATOM     13  O   UNL     1      46.589  16.726  18.997  0.00  0.00    -0.306 OA
BRANCH  13  12
ATOM     11  C   UNL     1      47.755  18.739  19.409  0.00  0.00    +0.188 A 
ATOM     12  C   UNL     1      46.599  18.016  19.431  0.00  0.00    -0.075 A 
ATOM     42  C   UNL     1      45.408  18.620  19.908  0.00  0.00    +0.412 A 
ATOM     43  C   UNL     1      45.490  20.018  20.360  0.00  0.00    -0.263 A 
ATOM     44  C   UNL     1      44.363  20.693  20.847  0.00  0.00    +0.222 A 
ATOM     47  C   UNL     1      44.482  22.005  21.263  0.00  0.00    -0.053 A 
ATOM     48  C   UNL     1      45.712  22.650  21.198  0.00  0.00    +0.197 A 
ATOM     51  C   UNL     1      46.832  21.989  20.716  0.00  0.00    -0.022 A 
ATOM     52  C   UNL     1      46.733  20.672  20.296  0.00  0.00    +0.182 A 
ATOM     53  O   UNL     1      44.354  18.004  19.942  0.00  0.00    -0.445 OA
ATOM     54  O   UNL     1      47.815  20.014  19.832  0.00  0.00    -0.199 OA
BRANCH  11  10
ATOM      1  C   UNL     1      49.117  17.798  17.552  0.00  0.00    +0.081 A 
ATOM      2  C   UNL     1      50.269  17.198  17.088  0.00  0.00    +0.006 A 
ATOM      3  C   UNL     1      51.296  16.888  17.967  0.00  0.00    +0.110 A 
ATOM      6  C   UNL     1      51.171  17.182  19.323  0.00  0.00    +0.080 A 
ATOM      9  C   UNL     1      50.020  17.784  19.796  0.00  0.00    +0.063 A 
ATOM     10  C   UNL     1      48.985  18.096  18.911  0.00  0.00    -0.062 A 
BRANCH   3   4
ATOM      4  O   UNL     1      52.428  16.296  17.504  0.00  0.00    -0.484 OA
ATOM      5  H   UNL     1      52.615  16.477  16.573  0.00  0.00    +0.395 HD
ENDBRANCH   3   4
BRANCH   6   7
ATOM      7  O   UNL     1      52.180  16.877  20.182  0.00  0.00    -0.480 OA
ATOM      8  H   UNL     1      52.870  16.320  19.797  0.00  0.00    +0.391 HD
ENDBRANCH   6   7
ENDBRANCH  11  10
BRANCH  44  45
ATOM     45  O   UNL     1      43.163  20.061  20.909  0.00  0.00    -0.472 OA
ATOM     46  H   UNL     1      42.539  20.463  21.529  0.00  0.00    +0.403 HD
ENDBRANCH  44  45
BRANCH  48  49
ATOM     49  O   UNL     1      45.818  23.940  21.608  0.00  0.00    -0.486 OA
ATOM     50  H   UNL     1      45.703  24.589  20.900  0.00  0.00    +0.404 HD
ENDBRANCH  48  49
ENDBRANCH  13  12
ENDBRANCH  14  13
BRANCH  24  25
ATOM     25  C   UNL     1      49.602  13.812  18.792  0.00  0.00    +0.260 C 
BRANCH  25  26
ATOM     26  O   UNL     1      49.745  12.856  17.739  0.00  0.00    -0.337 OA
BRANCH  26  27
ATOM     27  C   UNL     1      50.717  13.086  16.834  0.00  0.00    +0.513 C 
ATOM     40  O   UNL     1      51.856  13.292  17.203  0.00  0.00    -0.493 OA
BRANCH  27  28
ATOM     28  C   UNL     1      50.396  13.088  15.394  0.00  0.00    -0.092 A 
ATOM     29  C   UNL     1      51.408  13.282  14.451  0.00  0.00    +0.060 A 
ATOM     30  C   UNL     1      51.105  13.282  13.103  0.00  0.00    +0.087 A 
ATOM     33  C   UNL     1      49.791  13.091  12.684  0.00  0.00    +0.092 A 
ATOM     36  C   UNL     1      48.780  12.897  13.621  0.00  0.00    +0.090 A 
ATOM     39  C   UNL     1      49.079  12.889  14.971  0.00  0.00    +0.080 A 
BRANCH  30  31
ATOM     31  O   UNL     1      52.090  13.471  12.184  0.00  0.00    -0.477 OA
ATOM     32  H   UNL     1      51.873  14.122  11.503  0.00  0.00    +0.389 HD
ENDBRANCH  30  31
BRANCH  33  34
ATOM     34  O   UNL     1      49.495  13.092  11.357  0.00  0.00    -0.472 OA
ATOM     35  H   UNL     1      48.750  13.662  11.121  0.00  0.00    +0.391 HD
ENDBRANCH  33  34
BRANCH  36  37
ATOM     37  O   UNL     1      47.497  12.711  13.208  0.00  0.00    -0.478 OA
ATOM     38  H   UNL     1      46.950  12.218  13.835  0.00  0.00    +0.393 HD
ENDBRANCH  36  37
ENDBRANCH  27  28
ENDBRANCH  26  27
ENDBRANCH  25  26
ENDBRANCH  24  25
TORSDOF 17
ENDMDL
MODEL 6
REMARK VINA RESULT:      -6.8      1.734      4.217
REMARK  Name = ZINC85815475
REMARK  17 active torsions:
REMARK  status: ('A' for Active; 'I' for Inactive)
REMARK    1  A    between atoms: C3_3  and  O16_49
REMARK    2  A    between atoms: C4_4  and  O15_48
REMARK    3  A    between atoms: C6_6  and  C7_7
REMARK    4  A    between atoms: C8_8  and  O5_20
REMARK    5  A    between atoms: C11_12  and  O4_19
REMARK    6  A    between atoms: C13_14  and  O3_18
REMARK    7  A    between atoms: O5_20  and  C16_21
REMARK    8  A    between atoms: C17_23  and  O14_47
REMARK    9  A    between atoms: C18_25  and  O13_46
REMARK   10  A    between atoms: C19_27  and  O12_45
REMARK   11  A    between atoms: C20_29  and  C21_32
REMARK   12  A    between atoms: C21_32  and  O7_33
REMARK   13  A    between atoms: O7_33  and  C22_34
REMARK   14  A    between atoms: C22_34  and  C23_36
REMARK   15  A    between atoms: C25_38  and  O11_44
REMARK   16  A    between atoms: C26_39  and  O10_43
REMARK   17  A    between atoms: C27_40  and  O9_42
REMARK                            x       y       z     vdW  Elec       q    Type
REMARK                         _______ _______ _______ _____ _____    ______ ____
ROOT
ATOM     14  C   UNL     1      49.110  17.444  18.317  0.00  0.00    +0.332 C 
ATOM     15  C   UNL     1      50.534  17.788  17.869  0.00  0.00    +0.147 C 
ATOM     18  C   UNL     1      51.531  17.204  18.874  0.00  0.00    +0.168 C 
ATOM     21  C   UNL     1      51.306  15.693  18.982  0.00  0.00    +0.167 C 
ATOM     24  C   UNL     1      49.853  15.430  19.388  0.00  0.00    +0.192 C 
ATOM     41  O   UNL     1      48.976  16.026  18.428  0.00  0.00    -0.353 OA
ENDROOT
BRANCH  15  16
ATOM     16  O   UNL     1      50.774  17.230  16.575  0.00  0.00    -0.515 OA
ATOM     17  H   UNL     1      51.711  17.139  16.354  0.00  0.00    +0.377 HD
ENDBRANCH  15  16
BRANCH  18  19
ATOM     19  O   UNL     1      52.865  17.459  18.425  0.00  0.00    -0.551 OA
ATOM     20  H   UNL     1      52.958  17.480  17.463  0.00  0.00    +0.386 HD
ENDBRANCH  18  19
BRANCH  21  22
ATOM     22  O   UNL     1      51.569  15.079  17.719  0.00  0.00    -0.531 OA
ATOM     23  H   UNL     1      52.003  14.217  17.784  0.00  0.00    +0.386 HD
ENDBRANCH  21  22
BRANCH  14  13
ATOM     13  O   UNL     1      48.852  18.048  19.586  0.00  0.00    -0.306 OA
BRANCH  13  12
ATOM     11  C   UNL     1      48.255  20.333  19.567  0.00  0.00    +0.188 A 
ATOM     12  C   UNL     1      47.898  19.019  19.625  0.00  0.00    -0.075 A 
ATOM     42  C   UNL     1      46.527  18.671  19.726  0.00  0.00    +0.412 A 
ATOM     43  C   UNL     1      45.550  19.770  19.762  0.00  0.00    -0.263 A 
ATOM     44  C   UNL     1      44.175  19.519  19.860  0.00  0.00    +0.222 A 
ATOM     47  C   UNL     1      43.289  20.580  19.892  0.00  0.00    -0.053 A 
ATOM     48  C   UNL     1      43.761  21.886  19.826  0.00  0.00    +0.197 A 
ATOM     51  C   UNL     1      45.120  22.143  19.727  0.00  0.00    -0.022 A 
ATOM     52  C   UNL     1      46.024  21.093  19.695  0.00  0.00    +0.182 A 
ATOM     53  O   UNL     1      46.171  17.504  19.780  0.00  0.00    -0.445 OA
ATOM     54  O   UNL     1      47.350  21.327  19.607  0.00  0.00    -0.199 OA
BRANCH  11  10
ATOM      1  C   UNL     1      50.465  20.783  20.617  0.00  0.00    +0.081 A 
ATOM      2  C   UNL     1      51.802  21.104  20.517  0.00  0.00    +0.006 A 
ATOM      3  C   UNL     1      52.375  21.323  19.273  0.00  0.00    +0.110 A 
ATOM      6  C   UNL     1      51.603  21.220  18.118  0.00  0.00    +0.080 A 
ATOM      9  C   UNL     1      50.263  20.898  18.210  0.00  0.00    +0.063 A 
ATOM     10  C   UNL     1      49.684  20.678  19.463  0.00  0.00    -0.062 A 
BRANCH   3   4
ATOM      4  O   UNL     1      53.693  21.640  19.181  0.00  0.00    -0.484 OA
ATOM      5  H   UNL     1      53.902  22.249  18.459  0.00  0.00    +0.395 HD
ENDBRANCH   3   4
BRANCH   6   7
ATOM      7  O   UNL     1      52.168  21.436  16.900  0.00  0.00    -0.480 OA
ATOM      8  H   UNL     1      53.097  21.172  16.844  0.00  0.00    +0.391 HD
ENDBRANCH   6   7
ENDBRANCH  11  10
BRANCH  44  45
ATOM     45  O   UNL     1      43.717  18.243  19.924  0.00  0.00    -0.472 OA
ATOM     46  H   UNL     1      42.756  18.174  20.011  0.00  0.00    +0.403 HD
ENDBRANCH  44  45
BRANCH  48  49
ATOM     49  O   UNL     1      42.882  22.920  19.857  0.00  0.00    -0.486 OA
ATOM     50  H   UNL     1      42.541  23.174  18.988  0.00  0.00    +0.404 HD
ENDBRANCH  48  49
ENDBRANCH  13  12
ENDBRANCH  14  13
BRANCH  24  25
ATOM     25  C   UNL     1      49.603  13.922  19.441  0.00  0.00    +0.260 C 
BRANCH  25  26
ATOM     26  O   UNL     1      48.811  13.531  18.317  0.00  0.00    -0.337 OA
BRANCH  26  27
ATOM     27  C   UNL     1      49.255  12.486  17.591  0.00  0.00    +0.513 C 
ATOM     40  O   UNL     1      49.547  11.443  18.141  0.00  0.00    -0.493 OA
BRANCH  27  28
ATOM     28  C   UNL     1      49.385  12.608  16.127  0.00  0.00    -0.092 A 
ATOM     29  C   UNL     1      48.243  12.636  15.322  0.00  0.00    +0.060 A 
ATOM     30  C   UNL     1      48.369  12.751  13.950  0.00  0.00    +0.087 A 
ATOM     33  C   UNL     1      49.631  12.840  13.370  0.00  0.00    +0.092 A 
ATOM     36  C   UNL     1      50.771  12.813  14.170  0.00  0.00    +0.090 A 
ATOM     39  C   UNL     1      50.651  12.704  15.543  0.00  0.00    +0.080 A 
BRANCH  30  31
ATOM     31  O   UNL     1      47.257  12.778  13.166  0.00  0.00    -0.477 OA
ATOM     32  H   UNL     1      47.302  13.418  12.442  0.00  0.00    +0.389 HD
ENDBRANCH  30  31
BRANCH  33  34
ATOM     34  O   UNL     1      49.751  12.953  12.021  0.00  0.00    -0.472 OA
ATOM     35  H   UNL     1      50.373  13.637  11.738  0.00  0.00    +0.391 HD
ENDBRANCH  33  34
BRANCH  36  37
ATOM     37  O   UNL     1      52.003  12.899  13.600  0.00  0.00    -0.478 OA
ATOM     38  H   UNL     1      52.036  13.473  12.823  0.00  0.00    +0.393 HD
ENDBRANCH  36  37
ENDBRANCH  27  28
ENDBRANCH  26  27
ENDBRANCH  25  26
ENDBRANCH  24  25
TORSDOF 17
ENDMDL
MODEL 7
REMARK VINA RESULT:      -6.8      2.538      9.600
REMARK  Name = ZINC85815475
REMARK  17 active torsions:
REMARK  status: ('A' for Active; 'I' for Inactive)
REMARK    1  A    between atoms: C3_3  and  O16_49
REMARK    2  A    between atoms: C4_4  and  O15_48
REMARK    3  A    between atoms: C6_6  and  C7_7
REMARK    4  A    between atoms: C8_8  and  O5_20
REMARK    5  A    between atoms: C11_12  and  O4_19
REMARK    6  A    between atoms: C13_14  and  O3_18
REMARK    7  A    between atoms: O5_20  and  C16_21
REMARK    8  A    between atoms: C17_23  and  O14_47
REMARK    9  A    between atoms: C18_25  and  O13_46
REMARK   10  A    between atoms: C19_27  and  O12_45
REMARK   11  A    between atoms: C20_29  and  C21_32
REMARK   12  A    between atoms: C21_32  and  O7_33
REMARK   13  A    between atoms: O7_33  and  C22_34
REMARK   14  A    between atoms: C22_34  and  C23_36
REMARK   15  A    between atoms: C25_38  and  O11_44
REMARK   16  A    between atoms: C26_39  and  O10_43
REMARK   17  A    between atoms: C27_40  and  O9_42
REMARK                            x       y       z     vdW  Elec       q    Type
REMARK                         _______ _______ _______ _____ _____    ______ ____
ROOT
ATOM     14  C   UNL     1      49.965  15.053  17.209  0.00  0.00    +0.332 C 
ATOM     15  C   UNL     1      49.179  13.771  16.915  0.00  0.00    +0.147 C 
ATOM     18  C   UNL     1      47.888  13.775  17.738  0.00  0.00    +0.168 C 
ATOM     21  C   UNL     1      47.087  15.037  17.405  0.00  0.00    +0.167 C 
ATOM     24  C   UNL     1      47.953  16.269  17.681  0.00  0.00    +0.192 C 
ATOM     41  O   UNL     1      49.153  16.188  16.907  0.00  0.00    -0.353 OA
ENDROOT
BRANCH  15  16
ATOM     16  O   UNL     1      48.861  13.716  15.523  0.00  0.00    -0.515 OA
ATOM     17  H   UNL     1      49.432  14.263  14.967  0.00  0.00    +0.377 HD
ENDBRANCH  15  16
BRANCH  18  19
ATOM     19  O   UNL     1      47.113  12.617  17.417  0.00  0.00    -0.551 OA
ATOM     20  H   UNL     1      46.224  12.620  17.798  0.00  0.00    +0.386 HD
ENDBRANCH  18  19
BRANCH  21  22
ATOM     22  O   UNL     1      46.710  15.015  16.027  0.00  0.00    -0.531 OA
ATOM     23  H   UNL     1      46.836  15.859  15.572  0.00  0.00    +0.386 HD
ENDBRANCH  21  22
BRANCH  14  13
ATOM     13  O   UNL     1      50.331  15.081  18.590  0.00  0.00    -0.306 OA
BRANCH  13  12
ATOM     11  C   UNL     1      52.289  16.319  19.051  0.00  0.00    +0.188 A 
ATOM     12  C   UNL     1      51.661  15.122  18.876  0.00  0.00    -0.075 A 
ATOM     42  C   UNL     1      52.404  13.920  18.995  0.00  0.00    +0.412 A 
ATOM     43  C   UNL     1      53.838  14.038  19.306  0.00  0.00    -0.263 A 
ATOM     44  C   UNL     1      54.649  12.903  19.442  0.00  0.00    +0.222 A 
ATOM     47  C   UNL     1      55.991  13.056  19.734  0.00  0.00    -0.053 A 
ATOM     48  C   UNL     1      56.531  14.328  19.893  0.00  0.00    +0.197 A 
ATOM     51  C   UNL     1      55.735  15.455  19.762  0.00  0.00    -0.022 A 
ATOM     52  C   UNL     1      54.387  15.322  19.468  0.00  0.00    +0.182 A 
ATOM     53  O   UNL     1      51.876  12.830  18.845  0.00  0.00    -0.445 OA
ATOM     54  O   UNL     1      53.601  16.410  19.330  0.00  0.00    -0.199 OA
BRANCH  11  10
ATOM      1  C   UNL     1      51.707  18.410  17.835  0.00  0.00    +0.081 A 
ATOM      2  C   UNL     1      50.968  19.569  17.717  0.00  0.00    +0.006 A 
ATOM      3  C   UNL     1      50.021  19.892  18.678  0.00  0.00    +0.110 A 
ATOM      6  C   UNL     1      49.811  19.048  19.767  0.00  0.00    +0.080 A 
ATOM      9  C   UNL     1      50.547  17.885  19.891  0.00  0.00    +0.063 A 
ATOM     10  C   UNL     1      51.501  17.559  18.924  0.00  0.00    -0.062 A 
BRANCH   3   4
ATOM      4  O   UNL     1      49.297  21.035  18.558  0.00  0.00    -0.484 OA
ATOM      5  H   UNL     1      49.833  21.840  18.530  0.00  0.00    +0.395 HD
ENDBRANCH   3   4
BRANCH   6   7
ATOM      7  O   UNL     1      48.882  19.368  20.707  0.00  0.00    -0.480 OA
ATOM      8  H   UNL     1      47.991  19.050  20.505  0.00  0.00    +0.391 HD
ENDBRANCH   6   7
ENDBRANCH  11  10
BRANCH  44  45
ATOM     45  O   UNL     1      54.119  11.663  19.287  0.00  0.00    -0.472 OA
ATOM     46  H   UNL     1      53.383  11.472  19.884  0.00  0.00    +0.403 HD
ENDBRANCH  44  45
BRANCH  48  49
ATOM     49  O   UNL     1      57.850  14.466  20.181  0.00  0.00    -0.486 OA
ATOM     50  H   UNL     1      58.118  14.048  21.011  0.00  0.00    +0.404 HD
ENDBRANCH  48  49
ENDBRANCH  13  12
ENDBRANCH  14  13
BRANCH  24  25
ATOM     25  C   UNL     1      47.181  17.532  17.295  0.00  0.00    +0.260 C 
BRANCH  25  26
ATOM     26  O   UNL     1      45.982  17.612  18.068  0.00  0.00    -0.337 OA
BRANCH  26  27
ATOM     27  C   UNL     1      45.718  18.790  18.668  0.00  0.00    +0.513 C 
ATOM     40  O   UNL     1      46.572  19.654  18.711  0.00  0.00    -0.493 OA
BRANCH  27  28
ATOM     28  C   UNL     1      44.394  19.030  19.271  0.00  0.00    -0.092 A 
ATOM     29  C   UNL     1      43.977  18.272  20.369  0.00  0.00    +0.060 A 
ATOM     30  C   UNL     1      42.736  18.500  20.933  0.00  0.00    +0.087 A 
ATOM     33  C   UNL     1      41.901  19.482  20.407  0.00  0.00    +0.092 A 
ATOM     36  C   UNL     1      42.313  20.238  19.313  0.00  0.00    +0.090 A 
ATOM     39  C   UNL     1      43.557  20.019  18.750  0.00  0.00    +0.080 A 
BRANCH  30  31
ATOM     31  O   UNL     1      42.329  17.763  22.001  0.00  0.00    -0.477 OA
ATOM     32  H   UNL     1      41.572  17.190  21.819  0.00  0.00    +0.389 HD
ENDBRANCH  30  31
BRANCH  33  34
ATOM     34  O   UNL     1      40.680  19.703  20.963  0.00  0.00    -0.472 OA
ATOM     35  H   UNL     1      40.458  20.638  21.063  0.00  0.00    +0.391 HD
ENDBRANCH  33  34
BRANCH  36  37
ATOM     37  O   UNL     1      41.495  21.196  18.802  0.00  0.00    -0.478 OA
ATOM     38  H   UNL     1      41.896  21.719  18.094  0.00  0.00    +0.393 HD
ENDBRANCH  36  37
ENDBRANCH  27  28
ENDBRANCH  26  27
ENDBRANCH  25  26
ENDBRANCH  24  25
TORSDOF 17
ENDMDL
MODEL 8
REMARK VINA RESULT:      -6.7      1.689      5.424
REMARK  Name = ZINC85815475
REMARK  17 active torsions:
REMARK  status: ('A' for Active; 'I' for Inactive)
REMARK    1  A    between atoms: C3_3  and  O16_49
REMARK    2  A    between atoms: C4_4  and  O15_48
REMARK    3  A    between atoms: C6_6  and  C7_7
REMARK    4  A    between atoms: C8_8  and  O5_20
REMARK    5  A    between atoms: C11_12  and  O4_19
REMARK    6  A    between atoms: C13_14  and  O3_18
REMARK    7  A    between atoms: O5_20  and  C16_21
REMARK    8  A    between atoms: C17_23  and  O14_47
REMARK    9  A    between atoms: C18_25  and  O13_46
REMARK   10  A    between atoms: C19_27  and  O12_45
REMARK   11  A    between atoms: C20_29  and  C21_32
REMARK   12  A    between atoms: C21_32  and  O7_33
REMARK   13  A    between atoms: O7_33  and  C22_34
REMARK   14  A    between atoms: C22_34  and  C23_36
REMARK   15  A    between atoms: C25_38  and  O11_44
REMARK   16  A    between atoms: C26_39  and  O10_43
REMARK   17  A    between atoms: C27_40  and  O9_42
REMARK                            x       y       z     vdW  Elec       q    Type
REMARK                         _______ _______ _______ _____ _____    ______ ____
ROOT
ATOM     14  C   UNL     1      47.139  15.631  19.026  0.00  0.00    +0.332 C 
ATOM     15  C   UNL     1      45.957  14.750  18.612  0.00  0.00    +0.147 C 
ATOM     18  C   UNL     1      46.345  13.937  17.374  0.00  0.00    +0.168 C 
ATOM     21  C   UNL     1      47.600  13.117  17.687  0.00  0.00    +0.167 C 
ATOM     24  C   UNL     1      48.719  14.062  18.135  0.00  0.00    +0.192 C 
ATOM     41  O   UNL     1      48.281  14.810  19.272  0.00  0.00    -0.353 OA
ENDROOT
BRANCH  15  16
ATOM     16  O   UNL     1      45.627  13.863  19.683  0.00  0.00    -0.515 OA
ATOM     17  H   UNL     1      44.678  13.782  19.849  0.00  0.00    +0.377 HD
ENDBRANCH  15  16
BRANCH  18  19
ATOM     19  O   UNL     1      45.273  13.058  17.024  0.00  0.00    -0.551 OA
ATOM     20  H   UNL     1      45.536  12.326  16.449  0.00  0.00    +0.386 HD
ENDBRANCH  18  19
BRANCH  21  22
ATOM     22  O   UNL     1      47.313  12.185  18.731  0.00  0.00    -0.531 OA
ATOM     23  H   UNL     1      46.678  12.510  19.385  0.00  0.00    +0.386 HD
ENDBRANCH  21  22
BRANCH  14  13
ATOM     13  O   UNL     1      47.433  16.555  17.975  0.00  0.00    -0.306 OA
BRANCH  13  12
ATOM     11  C   UNL     1      47.834  18.665  18.960  0.00  0.00    +0.188 A 
ATOM     12  C   UNL     1      48.283  17.576  18.272  0.00  0.00    -0.075 A 
ATOM     42  C   UNL     1      49.641  17.517  17.870  0.00  0.00    +0.412 A 
ATOM     43  C   UNL     1      50.504  18.655  18.225  0.00  0.00    -0.263 A 
ATOM     44  C   UNL     1      51.858  18.681  17.867  0.00  0.00    +0.222 A 
ATOM     47  C   UNL     1      52.635  19.769  18.219  0.00  0.00    -0.053 A 
ATOM     48  C   UNL     1      52.074  20.829  18.923  0.00  0.00    +0.197 A 
ATOM     51  C   UNL     1      50.735  20.811  19.281  0.00  0.00    -0.022 A 
ATOM     52  C   UNL     1      49.940  19.729  18.936  0.00  0.00    +0.182 A 
ATOM     53  O   UNL     1      50.079  16.558  17.253  0.00  0.00    -0.445 OA
ATOM     54  O   UNL     1      48.633  19.700  19.271  0.00  0.00    -0.199 OA
BRANCH  11  10
ATOM      1  C   UNL     1      46.014  18.101  20.561  0.00  0.00    +0.081 A 
ATOM      2  C   UNL     1      44.690  18.146  20.943  0.00  0.00    +0.006 A 
ATOM      3  C   UNL     1      43.757  18.795  20.148  0.00  0.00    +0.110 A 
ATOM      6  C   UNL     1      44.153  19.405  18.959  0.00  0.00    +0.080 A 
ATOM      9  C   UNL     1      45.478  19.365  18.569  0.00  0.00    +0.063 A 
ATOM     10  C   UNL     1      46.418  18.711  19.370  0.00  0.00    -0.062 A 
BRANCH   3   4
ATOM      4  O   UNL     1      42.453  18.836  20.528  0.00  0.00    -0.484 OA
ATOM      5  H   UNL     1      41.996  19.651  20.281  0.00  0.00    +0.395 HD
ENDBRANCH   3   4
BRANCH   6   7
ATOM      7  O   UNL     1      43.235  20.040  18.181  0.00  0.00    -0.480 OA
ATOM      8  H   UNL     1      42.329  19.726  18.305  0.00  0.00    +0.391 HD
ENDBRANCH   6   7
ENDBRANCH  11  10
BRANCH  44  45
ATOM     45  O   UNL     1      52.403  17.645  17.181  0.00  0.00    -0.472 OA
ATOM     46  H   UNL     1      53.369  17.667  17.137  0.00  0.00    +0.403 HD
ENDBRANCH  44  45
BRANCH  48  49
ATOM     49  O   UNL     1      52.846  21.893  19.264  0.00  0.00    -0.486 OA
ATOM     50  H   UNL     1      52.376  22.739  19.258  0.00  0.00    +0.404 HD
ENDBRANCH  48  49
ENDBRANCH  13  12
ENDBRANCH  14  13
BRANCH  24  25
ATOM     25  C   UNL     1      49.958  13.245  18.506  0.00  0.00    +0.260 C 
BRANCH  25  26
ATOM     26  O   UNL     1      50.145  12.202  17.547  0.00  0.00    -0.337 OA
BRANCH  26  27
ATOM     27  C   UNL     1      51.080  12.405  16.598  0.00  0.00    +0.513 C 
ATOM     40  O   UNL     1      52.259  12.382  16.891  0.00  0.00    -0.493 OA
BRANCH  27  28
ATOM     28  C   UNL     1      50.671  12.655  15.203  0.00  0.00    -0.092 A 
ATOM     29  C   UNL     1      49.324  12.573  14.843  0.00  0.00    +0.060 A 
ATOM     30  C   UNL     1      48.944  12.808  13.535  0.00  0.00    +0.087 A 
ATOM     33  C   UNL     1      49.903  13.125  12.577  0.00  0.00    +0.092 A 
ATOM     36  C   UNL     1      51.246  13.207  12.932  0.00  0.00    +0.090 A 
ATOM     39  C   UNL     1      51.631  12.980  14.241  0.00  0.00    +0.080 A 
BRANCH  30  31
ATOM     31  O   UNL     1      47.632  12.729  13.184  0.00  0.00    -0.477 OA
ATOM     32  H   UNL     1      47.102  13.487  13.468  0.00  0.00    +0.389 HD
ENDBRANCH  30  31
BRANCH  33  34
ATOM     34  O   UNL     1      49.526  13.355  11.291  0.00  0.00    -0.472 OA
ATOM     35  H   UNL     1      50.049  12.873  10.636  0.00  0.00    +0.391 HD
ENDBRANCH  33  34
BRANCH  36  37
ATOM     37  O   UNL     1      52.180  13.517  11.993  0.00  0.00    -0.478 OA
ATOM     38  H   UNL     1      52.881  14.100  12.314  0.00  0.00    +0.393 HD
ENDBRANCH  36  37
ENDBRANCH  27  28
ENDBRANCH  26  27
ENDBRANCH  25  26
ENDBRANCH  24  25
TORSDOF 17
ENDMDL
MODEL 9
REMARK VINA RESULT:      -6.7      1.938      9.700
REMARK  Name = ZINC85815475
REMARK  17 active torsions:
REMARK  status: ('A' for Active; 'I' for Inactive)
REMARK    1  A    between atoms: C3_3  and  O16_49
REMARK    2  A    between atoms: C4_4  and  O15_48
REMARK    3  A    between atoms: C6_6  and  C7_7
REMARK    4  A    between atoms: C8_8  and  O5_20
REMARK    5  A    between atoms: C11_12  and  O4_19
REMARK    6  A    between atoms: C13_14  and  O3_18
REMARK    7  A    between atoms: O5_20  and  C16_21
REMARK    8  A    between atoms: C17_23  and  O14_47
REMARK    9  A    between atoms: C18_25  and  O13_46
REMARK   10  A    between atoms: C19_27  and  O12_45
REMARK   11  A    between atoms: C20_29  and  C21_32
REMARK   12  A    between atoms: C21_32  and  O7_33
REMARK   13  A    between atoms: O7_33  and  C22_34
REMARK   14  A    between atoms: C22_34  and  C23_36
REMARK   15  A    between atoms: C25_38  and  O11_44
REMARK   16  A    between atoms: C26_39  and  O10_43
REMARK   17  A    between atoms: C27_40  and  O9_42
REMARK                            x       y       z     vdW  Elec       q    Type
REMARK                         _______ _______ _______ _____ _____    ______ ____
ROOT
ATOM     14  C   UNL     1      48.126  17.121  17.661  0.00  0.00    +0.332 C 
ATOM     15  C   UNL     1      46.724  16.522  17.802  0.00  0.00    +0.147 C 
ATOM     18  C   UNL     1      46.379  16.393  19.288  0.00  0.00    +0.168 C 
ATOM     21  C   UNL     1      46.492  17.770  19.949  0.00  0.00    +0.167 C 
ATOM     24  C   UNL     1      47.903  18.321  19.726  0.00  0.00    +0.192 C 
ATOM     41  O   UNL     1      48.171  18.387  18.323  0.00  0.00    -0.353 OA
ENDROOT
BRANCH  15  16
ATOM     16  O   UNL     1      45.774  17.377  17.162  0.00  0.00    -0.515 OA
ATOM     17  H   UNL     1      44.885  17.329  17.540  0.00  0.00    +0.377 HD
ENDBRANCH  15  16
BRANCH  18  19
ATOM     19  O   UNL     1      45.044  15.901  19.428  0.00  0.00    -0.551 OA
ATOM     20  H   UNL     1      44.361  16.564  19.255  0.00  0.00    +0.386 HD
ENDBRANCH  18  19
BRANCH  21  22
ATOM     22  O   UNL     1      45.534  18.658  19.368  0.00  0.00    -0.531 OA
ATOM     23  H   UNL     1      44.636  18.545  19.710  0.00  0.00    +0.386 HD
ENDBRANCH  21  22
BRANCH  14  13
ATOM     13  O   UNL     1      49.082  16.239  18.253  0.00  0.00    -0.306 OA
BRANCH  13  12
ATOM     11  C   UNL     1      50.931  15.804  16.849  0.00  0.00    +0.188 A 
ATOM     12  C   UNL     1      49.756  15.406  17.413  0.00  0.00    -0.075 A 
ATOM     42  C   UNL     1      49.241  14.118  17.119  0.00  0.00    +0.412 A 
ATOM     43  C   UNL     1      50.022  13.269  16.204  0.00  0.00    -0.263 A 
ATOM     44  C   UNL     1      49.589  11.982  15.858  0.00  0.00    +0.222 A 
ATOM     47  C   UNL     1      50.350  11.217  14.995  0.00  0.00    -0.053 A 
ATOM     48  C   UNL     1      51.537  11.722  14.475  0.00  0.00    +0.197 A 
ATOM     51  C   UNL     1      51.973  12.993  14.814  0.00  0.00    -0.022 A 
ATOM     52  C   UNL     1      51.223  13.777  15.677  0.00  0.00    +0.182 A 
ATOM     53  O   UNL     1      48.192  13.727  17.606  0.00  0.00    -0.445 OA
ATOM     54  O   UNL     1      51.630  15.019  16.010  0.00  0.00    -0.199 OA
BRANCH  11  10
ATOM      1  C   UNL     1      51.979  17.413  18.431  0.00  0.00    +0.081 A 
ATOM      2  C   UNL     1      52.466  18.670  18.724  0.00  0.00    +0.006 A 
ATOM      3  C   UNL     1      52.433  19.671  17.765  0.00  0.00    +0.110 A 
ATOM      6  C   UNL     1      51.908  19.413  16.500  0.00  0.00    +0.080 A 
ATOM      9  C   UNL     1      51.419  18.157  16.199  0.00  0.00    +0.063 A 
ATOM     10  C   UNL     1      51.452  17.147  17.165  0.00  0.00    -0.062 A 
BRANCH   3   4
ATOM      4  O   UNL     1      52.913  20.908  18.059  0.00  0.00    -0.484 OA
ATOM      5  H   UNL     1      53.463  20.938  18.854  0.00  0.00    +0.395 HD
ENDBRANCH   3   4
BRANCH   6   7
ATOM      7  O   UNL     1      51.877  20.397  15.562  0.00  0.00    -0.480 OA
ATOM      8  H   UNL     1      52.447  20.232  14.798  0.00  0.00    +0.391 HD
ENDBRANCH   6   7
ENDBRANCH  11  10
BRANCH  44  45
ATOM     45  O   UNL     1      48.430  11.492  16.367  0.00  0.00    -0.472 OA
ATOM     46  H   UNL     1      48.005  10.828  15.806  0.00  0.00    +0.403 HD
ENDBRANCH  44  45
BRANCH  48  49
ATOM     49  O   UNL     1      52.278  10.961  13.629  0.00  0.00    -0.486 OA
ATOM     50  H   UNL     1      52.371  11.336  12.742  0.00  0.00    +0.404 HD
ENDBRANCH  48  49
ENDBRANCH  13  12
ENDBRANCH  14  13
BRANCH  24  25
ATOM     25  C   UNL     1      48.005  19.722  20.331  0.00  0.00    +0.260 C 
BRANCH  25  26
ATOM     26  O   UNL     1      46.970  19.899  21.300  0.00  0.00    -0.337 OA
BRANCH  26  27
ATOM     27  C   UNL     1      46.642  21.166  21.621  0.00  0.00    +0.513 C 
ATOM     40  O   UNL     1      47.243  21.744  22.505  0.00  0.00    -0.493 OA
BRANCH  27  28
ATOM     28  C   UNL     1      45.554  21.851  20.898  0.00  0.00    -0.092 A 
ATOM     29  C   UNL     1      44.385  21.158  20.572  0.00  0.00    +0.060 A 
ATOM     30  C   UNL     1      43.367  21.803  19.895  0.00  0.00    +0.087 A 
ATOM     33  C   UNL     1      43.507  23.141  19.537  0.00  0.00    +0.092 A 
ATOM     36  C   UNL     1      44.670  23.834  19.860  0.00  0.00    +0.090 A 
ATOM     39  C   UNL     1      45.689  23.196  20.543  0.00  0.00    +0.080 A 
BRANCH  30  31
ATOM     31  O   UNL     1      42.229  21.130  19.578  0.00  0.00    -0.477 OA
ATOM     32  H   UNL     1      42.110  20.305  20.069  0.00  0.00    +0.389 HD
ENDBRANCH  30  31
BRANCH  33  34
ATOM     34  O   UNL     1      42.504  23.772  18.870  0.00  0.00    -0.472 OA
ATOM     35  H   UNL     1      42.517  23.629  17.914  0.00  0.00    +0.391 HD
ENDBRANCH  33  34
BRANCH  36  37
ATOM     37  O   UNL     1      44.803  25.141  19.507  0.00  0.00    -0.478 OA
ATOM     38  H   UNL     1      45.494  25.302  18.850  0.00  0.00    +0.393 HD
ENDBRANCH  36  37
ENDBRANCH  27  28
ENDBRANCH  26  27
ENDBRANCH  25  26
ENDBRANCH  24  25
TORSDOF 17
ENDMDL
