MODEL 1
REMARK VINA RESULT:      -5.8      0.000      0.000
REMARK  Name = ZINC13382373
REMARK  13 active torsions:
REMARK  status: ('A' for Active; 'I' for Inactive)
REMARK    1  A    between atoms: C1_1  and  C2_2
REMARK    2  A    between atoms: C2_2  and  C3_3
REMARK    3  A    between atoms: C2_2  and  C4_4
REMARK    4  A    between atoms: C4_4  and  C5_5
REMARK    5  A    between atoms: C5_5  and  C6_6
REMARK    6  A    between atoms: C6_6  and  C7_8
REMARK    7  A    between atoms: C8_9  and  O4_21
REMARK    8  A    between atoms: C10_11  and  O3_20
REMARK    9  A    between atoms: C11_12  and  C13_15
REMARK   10  A    between atoms: C12_13  and  O2_14
REMARK   11  A    between atoms: C13_15  and  C14_16
REMARK   12  A    between atoms: C15_17  and  C16_18
REMARK   13  A    between atoms: C15_17  and  C17_19
REMARK                            x       y       z     vdW  Elec       q    Type
REMARK                         _______ _______ _______ _____ _____    ______ ____
ROOT
ATOM      6  C   UNL     1      45.008  22.086  20.335  0.00  0.00    -0.238 A 
ATOM      7  C   UNL     1      45.224  22.618  21.620  0.00  0.00    +0.184 A 
ATOM     10  C   UNL     1      46.391  22.323  22.299  0.00  0.00    -0.049 A 
ATOM     11  C   UNL     1      47.350  21.503  21.716  0.00  0.00    +0.177 A 
ATOM     14  C   UNL     1      47.147  20.973  20.448  0.00  0.00    -0.151 A 
ATOM     20  C   UNL     1      45.986  21.256  19.754  0.00  0.00    +0.202 A 
ENDROOT
BRANCH   6   5
ATOM      5  C   UNL     1      43.778  22.393  19.608  0.00  0.00    +0.394 C 
ATOM     23  O   UNL     1      43.569  23.523  19.217  0.00  0.00    -0.439 OA
BRANCH   5   4
ATOM      4  C   UNL     1      42.769  21.305  19.343  0.00  0.00    +0.046 C 
BRANCH   4   3
ATOM      3  C   UNL     1      41.462  21.932  18.853  0.00  0.00    +0.023 C 
BRANCH   3   2
ATOM      1  C   UNL     1      39.015  21.545  18.532  0.00  0.00    +0.015 C 
ATOM      2  C   UNL     1      40.343  20.891  18.916  0.00  0.00    -0.026 C 
ATOM     24  C   UNL     1      40.651  19.752  17.941  0.00  0.00    +0.013 C 
ENDBRANCH   3   2
ENDBRANCH   4   3
ENDBRANCH   5   4
ENDBRANCH   6   5
BRANCH   7   8
ATOM      8  O   UNL     1      44.292  23.423  22.188  0.00  0.00    -0.487 OA
ATOM      9  H   UNL     1      43.889  23.056  22.986  0.00  0.00    +0.400 HD
ENDBRANCH   7   8
BRANCH  11  12
ATOM     12  O   UNL     1      48.493  21.220  22.390  0.00  0.00    -0.487 OA
ATOM     13  H   UNL     1      48.435  20.435  22.951  0.00  0.00    +0.398 HD
ENDBRANCH  11  12
BRANCH  20  21
ATOM     21  O   UNL     1      45.790  20.738  18.516  0.00  0.00    -0.471 OA
ATOM     22  H   UNL     1      45.072  21.157  18.023  0.00  0.00    +0.398 HD
ENDBRANCH  20  21
BRANCH  14  15
ATOM     15  C   UNL     1      48.195  20.085  19.829  0.00  0.00    +0.132 C 
BRANCH  15  16
ATOM     16  C   UNL     1      49.158  20.927  19.031  0.00  0.00    -0.060 C 
ATOM     17  C   UNL     1      50.207  20.373  18.476  0.00  0.00    -0.124 C 
ATOM     18  C   UNL     1      51.099  21.185  17.573  0.00  0.00    +0.074 C 
ATOM     19  C   UNL     1      50.523  18.923  18.740  0.00  0.00    +0.076 C 
ENDBRANCH  15  16
ENDBRANCH  14  15
TORSDOF 9
ENDMDL
MODEL 2
REMARK VINA RESULT:      -5.5      1.193      7.091
REMARK  Name = ZINC13382373
REMARK  13 active torsions:
REMARK  status: ('A' for Active; 'I' for Inactive)
REMARK    1  A    between atoms: C1_1  and  C2_2
REMARK    2  A    between atoms: C2_2  and  C3_3
REMARK    3  A    between atoms: C2_2  and  C4_4
REMARK    4  A    between atoms: C4_4  and  C5_5
REMARK    5  A    between atoms: C5_5  and  C6_6
REMARK    6  A    between atoms: C6_6  and  C7_8
REMARK    7  A    between atoms: C8_9  and  O4_21
REMARK    8  A    between atoms: C10_11  and  O3_20
REMARK    9  A    between atoms: C11_12  and  C13_15
REMARK   10  A    between atoms: C12_13  and  O2_14
REMARK   11  A    between atoms: C13_15  and  C14_16
REMARK   12  A    between atoms: C15_17  and  C16_18
REMARK   13  A    between atoms: C15_17  and  C17_19
REMARK                            x       y       z     vdW  Elec       q    Type
REMARK                         _______ _______ _______ _____ _____    ______ ____
ROOT
ATOM      6  C   UNL     1      47.668  20.993  20.264  0.00  0.00    -0.238 A 
ATOM      7  C   UNL     1      47.853  21.562  21.538  0.00  0.00    +0.184 A 
ATOM     10  C   UNL     1      46.813  22.240  22.145  0.00  0.00    -0.049 A 
ATOM     11  C   UNL     1      45.587  22.360  21.502  0.00  0.00    +0.177 A 
ATOM     14  C   UNL     1      45.394  21.802  20.244  0.00  0.00    -0.151 A 
ATOM     20  C   UNL     1      46.422  21.121  19.620  0.00  0.00    +0.202 A 
ENDROOT
BRANCH   6   5
ATOM      5  C   UNL     1      48.761  20.274  19.614  0.00  0.00    +0.394 C 
ATOM     23  O   UNL     1      48.920  19.089  19.826  0.00  0.00    -0.439 OA
BRANCH   5   4
ATOM      4  C   UNL     1      49.689  21.002  18.677  0.00  0.00    +0.046 C 
BRANCH   4   3
ATOM      3  C   UNL     1      51.116  20.948  19.228  0.00  0.00    +0.023 C 
BRANCH   3   2
ATOM      1  C   UNL     1      52.378  19.154  18.033  0.00  0.00    +0.015 C 
ATOM      2  C   UNL     1      52.093  20.656  18.088  0.00  0.00    -0.026 C 
ATOM     24  C   UNL     1      51.477  21.108  16.762  0.00  0.00    +0.013 C 
ENDBRANCH   3   2
ENDBRANCH   4   3
ENDBRANCH   5   4
ENDBRANCH   6   5
BRANCH   7   8
ATOM      8  O   UNL     1      49.046  21.441  22.170  0.00  0.00    -0.487 OA
ATOM      9  H   UNL     1      49.228  20.551  22.501  0.00  0.00    +0.400 HD
ENDBRANCH   7   8
BRANCH  11  12
ATOM     12  O   UNL     1      44.572  23.027  22.107  0.00  0.00    -0.487 OA
ATOM     13  H   UNL     1      44.688  23.139  23.060  0.00  0.00    +0.398 HD
ENDBRANCH  11  12
BRANCH  20  21
ATOM     21  O   UNL     1      46.231  20.577  18.393  0.00  0.00    -0.471 OA
ATOM     22  H   UNL     1      46.427  21.178  17.661  0.00  0.00    +0.398 HD
ENDBRANCH  20  21
BRANCH  14  15
ATOM     15  C   UNL     1      44.060  21.942  19.557  0.00  0.00    +0.132 C 
BRANCH  15  16
ATOM     16  C   UNL     1      43.242  20.697  19.793  0.00  0.00    -0.060 C 
ATOM     17  C   UNL     1      42.004  20.638  19.371  0.00  0.00    -0.124 C 
ATOM     18  C   UNL     1      41.228  19.351  19.490  0.00  0.00    +0.074 C 
ATOM     19  C   UNL     1      41.355  21.856  18.766  0.00  0.00    +0.076 C 
ENDBRANCH  15  16
ENDBRANCH  14  15
TORSDOF 9
ENDMDL
MODEL 3
REMARK VINA RESULT:      -5.5      1.151      1.589
REMARK  Name = ZINC13382373
REMARK  13 active torsions:
REMARK  status: ('A' for Active; 'I' for Inactive)
REMARK    1  A    between atoms: C1_1  and  C2_2
REMARK    2  A    between atoms: C2_2  and  C3_3
REMARK    3  A    between atoms: C2_2  and  C4_4
REMARK    4  A    between atoms: C4_4  and  C5_5
REMARK    5  A    between atoms: C5_5  and  C6_6
REMARK    6  A    between atoms: C6_6  and  C7_8
REMARK    7  A    between atoms: C8_9  and  O4_21
REMARK    8  A    between atoms: C10_11  and  O3_20
REMARK    9  A    between atoms: C11_12  and  C13_15
REMARK   10  A    between atoms: C12_13  and  O2_14
REMARK   11  A    between atoms: C13_15  and  C14_16
REMARK   12  A    between atoms: C15_17  and  C16_18
REMARK   13  A    between atoms: C15_17  and  C17_19
REMARK                            x       y       z     vdW  Elec       q    Type
REMARK                         _______ _______ _______ _____ _____    ______ ____
ROOT
ATOM      6  C   UNL     1      46.139  21.598  20.502  0.00  0.00    -0.238 A 
ATOM      7  C   UNL     1      46.505  22.177  21.731  0.00  0.00    +0.184 A 
ATOM     10  C   UNL     1      47.797  22.033  22.202  0.00  0.00    -0.049 A 
ATOM     11  C   UNL     1      48.732  21.317  21.465  0.00  0.00    +0.177 A 
ATOM     14  C   UNL     1      48.381  20.740  20.251  0.00  0.00    -0.151 A 
ATOM     20  C   UNL     1      47.095  20.873  19.764  0.00  0.00    +0.202 A 
ENDROOT
BRANCH   6   5
ATOM      5  C   UNL     1      44.777  21.746  19.995  0.00  0.00    +0.394 C 
ATOM     23  O   UNL     1      44.441  22.775  19.447  0.00  0.00    -0.439 OA
BRANCH   5   4
ATOM      4  C   UNL     1      43.789  20.619  20.151  0.00  0.00    +0.046 C 
BRANCH   4   3
ATOM      3  C   UNL     1      43.264  20.206  18.774  0.00  0.00    +0.023 C 
BRANCH   3   2
ATOM      1  C   UNL     1      41.271  19.505  20.106  0.00  0.00    +0.015 C 
ATOM      2  C   UNL     1      41.736  20.159  18.804  0.00  0.00    -0.026 C 
ATOM     24  C   UNL     1      41.180  21.583  18.721  0.00  0.00    +0.013 C 
ENDBRANCH   3   2
ENDBRANCH   4   3
ENDBRANCH   5   4
ENDBRANCH   6   5
BRANCH   7   8
ATOM      8  O   UNL     1      45.595  22.881  22.449  0.00  0.00    -0.487 OA
ATOM      9  H   UNL     1      44.854  22.352  22.773  0.00  0.00    +0.400 HD
ENDBRANCH   7   8
BRANCH  11  12
ATOM     12  O   UNL     1      49.998  21.181  21.936  0.00  0.00    -0.487 OA
ATOM     13  H   UNL     1      50.313  21.942  22.441  0.00  0.00    +0.398 HD
ENDBRANCH  11  12
BRANCH  20  21
ATOM     21  O   UNL     1      46.755  20.310  18.578  0.00  0.00    -0.471 OA
ATOM     22  H   UNL     1      47.499  20.182  17.975  0.00  0.00    +0.398 HD
ENDBRANCH  20  21
BRANCH  14  15
ATOM     15  C   UNL     1      49.407  19.965  19.463  0.00  0.00    +0.132 C 
BRANCH  15  16
ATOM     16  C   UNL     1      50.015  20.861  18.415  0.00  0.00    -0.060 C 
ATOM     17  C   UNL     1      50.998  20.422  17.669  0.00  0.00    -0.124 C 
ATOM     18  C   UNL     1      51.520  21.268  16.536  0.00  0.00    +0.074 C 
ATOM     19  C   UNL     1      51.608  19.072  17.944  0.00  0.00    +0.076 C 
ENDBRANCH  15  16
ENDBRANCH  14  15
TORSDOF 9
ENDMDL
MODEL 4
REMARK VINA RESULT:      -5.4      4.783      8.091
REMARK  Name = ZINC13382373
REMARK  13 active torsions:
REMARK  status: ('A' for Active; 'I' for Inactive)
REMARK    1  A    between atoms: C1_1  and  C2_2
REMARK    2  A    between atoms: C2_2  and  C3_3
REMARK    3  A    between atoms: C2_2  and  C4_4
REMARK    4  A    between atoms: C4_4  and  C5_5
REMARK    5  A    between atoms: C5_5  and  C6_6
REMARK    6  A    between atoms: C6_6  and  C7_8
REMARK    7  A    between atoms: C8_9  and  O4_21
REMARK    8  A    between atoms: C10_11  and  O3_20
REMARK    9  A    between atoms: C11_12  and  C13_15
REMARK   10  A    between atoms: C12_13  and  O2_14
REMARK   11  A    between atoms: C13_15  and  C14_16
REMARK   12  A    between atoms: C15_17  and  C16_18
REMARK   13  A    between atoms: C15_17  and  C17_19
REMARK                            x       y       z     vdW  Elec       q    Type
REMARK                         _______ _______ _______ _____ _____    ______ ____
ROOT
ATOM      6  C   UNL     1      51.705  17.696  17.129  0.00  0.00    -0.238 A 
ATOM      7  C   UNL     1      52.106  18.106  15.845  0.00  0.00    +0.184 A 
ATOM     10  C   UNL     1      52.067  19.446  15.508  0.00  0.00    -0.049 A 
ATOM     11  C   UNL     1      51.631  20.387  16.434  0.00  0.00    +0.177 A 
ATOM     14  C   UNL     1      51.233  19.991  17.704  0.00  0.00    -0.151 A 
ATOM     20  C   UNL     1      51.265  18.657  18.060  0.00  0.00    +0.202 A 
ENDROOT
BRANCH   6   5
ATOM      5  C   UNL     1      51.744  16.282  17.496  0.00  0.00    +0.394 C 
ATOM     23  O   UNL     1      52.626  15.866  18.220  0.00  0.00    -0.439 OA
BRANCH   5   4
ATOM      4  C   UNL     1      50.688  15.340  16.978  0.00  0.00    +0.046 C 
BRANCH   4   3
ATOM      3  C   UNL     1      49.450  15.419  17.874  0.00  0.00    +0.023 C 
BRANCH   3   2
ATOM      1  C   UNL     1      47.130  15.116  17.000  0.00  0.00    +0.015 C 
ATOM      2  C   UNL     1      48.307  16.086  17.107  0.00  0.00    -0.026 C 
ATOM     24  C   UNL     1      47.863  17.348  17.852  0.00  0.00    +0.013 C 
ENDBRANCH   3   2
ENDBRANCH   4   3
ENDBRANCH   5   4
ENDBRANCH   6   5
BRANCH   7   8
ATOM      8  O   UNL     1      52.537  17.191  14.942  0.00  0.00    -0.487 OA
ATOM      9  H   UNL     1      53.035  16.459  15.330  0.00  0.00    +0.400 HD
ENDBRANCH   7   8
BRANCH  11  12
ATOM     12  O   UNL     1      51.597  21.700  16.093  0.00  0.00    -0.487 OA
ATOM     13  H   UNL     1      51.166  22.265  16.748  0.00  0.00    +0.398 HD
ENDBRANCH  11  12
BRANCH  20  21
ATOM     21  O   UNL     1      50.875  18.274  19.301  0.00  0.00    -0.471 OA
ATOM     22  H   UNL     1      51.553  17.795  19.796  0.00  0.00    +0.398 HD
ENDBRANCH  20  21
BRANCH  14  15
ATOM     15  C   UNL     1      50.762  21.023  18.698  0.00  0.00    +0.132 C 
BRANCH  15  16
ATOM     16  C   UNL     1      49.260  20.955  18.817  0.00  0.00    -0.060 C 
ATOM     17  C   UNL     1      48.699  20.908  19.999  0.00  0.00    -0.124 C 
ATOM     18  C   UNL     1      47.198  20.970  20.124  0.00  0.00    +0.074 C 
ATOM     19  C   UNL     1      49.553  20.790  21.235  0.00  0.00    +0.076 C 
ENDBRANCH  15  16
ENDBRANCH  14  15
TORSDOF 9
ENDMDL
MODEL 5
REMARK VINA RESULT:      -5.4      4.318      4.915
REMARK  Name = ZINC13382373
REMARK  13 active torsions:
REMARK  status: ('A' for Active; 'I' for Inactive)
REMARK    1  A    between atoms: C1_1  and  C2_2
REMARK    2  A    between atoms: C2_2  and  C3_3
REMARK    3  A    between atoms: C2_2  and  C4_4
REMARK    4  A    between atoms: C4_4  and  C5_5
REMARK    5  A    between atoms: C5_5  and  C6_6
REMARK    6  A    between atoms: C6_6  and  C7_8
REMARK    7  A    between atoms: C8_9  and  O4_21
REMARK    8  A    between atoms: C10_11  and  O3_20
REMARK    9  A    between atoms: C11_12  and  C13_15
REMARK   10  A    between atoms: C12_13  and  O2_14
REMARK   11  A    between atoms: C13_15  and  C14_16
REMARK   12  A    between atoms: C15_17  and  C16_18
REMARK   13  A    between atoms: C15_17  and  C17_19
REMARK                            x       y       z     vdW  Elec       q    Type
REMARK                         _______ _______ _______ _____ _____    ______ ____
ROOT
ATOM      6  C   UNL     1      43.757  19.149  20.709  0.00  0.00    -0.238 A 
ATOM      7  C   UNL     1      42.817  18.728  21.668  0.00  0.00    +0.184 A 
ATOM     10  C   UNL     1      42.941  17.481  22.251  0.00  0.00    -0.049 A 
ATOM     11  C   UNL     1      43.991  16.644  21.893  0.00  0.00    +0.177 A 
ATOM     14  C   UNL     1      44.925  17.051  20.948  0.00  0.00    -0.151 A 
ATOM     20  C   UNL     1      44.817  18.293  20.353  0.00  0.00    +0.202 A 
ENDROOT
BRANCH   6   5
ATOM      5  C   UNL     1      43.636  20.466  20.088  0.00  0.00    +0.394 C 
ATOM     23  O   UNL     1      44.144  21.436  20.613  0.00  0.00    -0.439 OA
BRANCH   5   4
ATOM      4  C   UNL     1      42.880  20.621  18.793  0.00  0.00    +0.046 C 
BRANCH   4   3
ATOM      3  C   UNL     1      41.658  21.514  19.019  0.00  0.00    +0.023 C 
BRANCH   3   2
ATOM      1  C   UNL     1      39.206  21.570  18.545  0.00  0.00    +0.015 C 
ATOM      2  C   UNL     1      40.385  20.671  18.919  0.00  0.00    -0.026 C 
ATOM     24  C   UNL     1      40.569  19.597  17.844  0.00  0.00    +0.013 C 
ENDBRANCH   3   2
ENDBRANCH   4   3
ENDBRANCH   5   4
ENDBRANCH   6   5
BRANCH   7   8
ATOM      8  O   UNL     1      41.795  19.546  22.023  0.00  0.00    -0.487 OA
ATOM      9  H   UNL     1      42.055  20.270  22.608  0.00  0.00    +0.400 HD
ENDBRANCH   7   8
BRANCH  11  12
ATOM     12  O   UNL     1      44.105  15.422  22.472  0.00  0.00    -0.487 OA
ATOM     13  H   UNL     1      43.267  14.948  22.557  0.00  0.00    +0.398 HD
ENDBRANCH  11  12
BRANCH  20  21
ATOM     21  O   UNL     1      45.730  18.688  19.431  0.00  0.00    -0.471 OA
ATOM     22  H   UNL     1      45.352  19.174  18.686  0.00  0.00    +0.398 HD
ENDBRANCH  20  21
BRANCH  14  15
ATOM     15  C   UNL     1      46.058  16.132  20.568  0.00  0.00    +0.132 C 
BRANCH  15  16
ATOM     16  C   UNL     1      45.612  15.220  19.454  0.00  0.00    -0.060 C 
ATOM     17  C   UNL     1      45.734  13.923  19.581  0.00  0.00    -0.124 C 
ATOM     18  C   UNL     1      45.172  13.006  18.525  0.00  0.00    +0.074 C 
ATOM     19  C   UNL     1      46.437  13.346  20.783  0.00  0.00    +0.076 C 
ENDBRANCH  15  16
ENDBRANCH  14  15
TORSDOF 9
ENDMDL
MODEL 6
REMARK VINA RESULT:      -5.3      4.320      5.599
REMARK  Name = ZINC13382373
REMARK  13 active torsions:
REMARK  status: ('A' for Active; 'I' for Inactive)
REMARK    1  A    between atoms: C1_1  and  C2_2
REMARK    2  A    between atoms: C2_2  and  C3_3
REMARK    3  A    between atoms: C2_2  and  C4_4
REMARK    4  A    between atoms: C4_4  and  C5_5
REMARK    5  A    between atoms: C5_5  and  C6_6
REMARK    6  A    between atoms: C6_6  and  C7_8
REMARK    7  A    between atoms: C8_9  and  O4_21
REMARK    8  A    between atoms: C10_11  and  O3_20
REMARK    9  A    between atoms: C11_12  and  C13_15
REMARK   10  A    between atoms: C12_13  and  O2_14
REMARK   11  A    between atoms: C13_15  and  C14_16
REMARK   12  A    between atoms: C15_17  and  C16_18
REMARK   13  A    between atoms: C15_17  and  C17_19
REMARK                            x       y       z     vdW  Elec       q    Type
REMARK                         _______ _______ _______ _____ _____    ______ ____
ROOT
ATOM      6  C   UNL     1      43.338  19.004  20.232  0.00  0.00    -0.238 A 
ATOM      7  C   UNL     1      42.541  18.656  21.338  0.00  0.00    +0.184 A 
ATOM     10  C   UNL     1      42.858  17.542  22.091  0.00  0.00    -0.049 A 
ATOM     11  C   UNL     1      43.962  16.765  21.759  0.00  0.00    +0.177 A 
ATOM     14  C   UNL     1      44.756  17.100  20.669  0.00  0.00    -0.151 A 
ATOM     20  C   UNL     1      44.454  18.210  19.903  0.00  0.00    +0.202 A 
ENDROOT
BRANCH   6   5
ATOM      5  C   UNL     1      43.012  20.181  19.430  0.00  0.00    +0.394 C 
ATOM     23  O   UNL     1      42.401  20.055  18.388  0.00  0.00    -0.439 OA
BRANCH   5   4
ATOM      4  C   UNL     1      43.432  21.550  19.897  0.00  0.00    +0.046 C 
BRANCH   4   3
ATOM      3  C   UNL     1      44.828  21.867  19.357  0.00  0.00    +0.023 C 
BRANCH   3   2
ATOM      1  C   UNL     1      45.011  22.016  21.844  0.00  0.00    +0.015 C 
ATOM      2  C   UNL     1      45.771  22.162  20.525  0.00  0.00    -0.026 C 
ATOM     24  C   UNL     1      46.941  21.175  20.497  0.00  0.00    +0.013 C 
ENDBRANCH   3   2
ENDBRANCH   4   3
ENDBRANCH   5   4
ENDBRANCH   6   5
BRANCH   7   8
ATOM      8  O   UNL     1      41.466  19.415  21.667  0.00  0.00    -0.487 OA
ATOM      9  H   UNL     1      41.608  20.366  21.560  0.00  0.00    +0.400 HD
ENDBRANCH   7   8
BRANCH  11  12
ATOM     12  O   UNL     1      44.266  15.674  22.505  0.00  0.00    -0.487 OA
ATOM     13  H   UNL     1      43.524  15.068  22.636  0.00  0.00    +0.398 HD
ENDBRANCH  11  12
BRANCH  20  21
ATOM     21  O   UNL     1      45.231  18.535  18.840  0.00  0.00    -0.471 OA
ATOM     22  H   UNL     1      46.033  18.001  18.761  0.00  0.00    +0.398 HD
ENDBRANCH  20  21
BRANCH  14  15
ATOM     15  C   UNL     1      45.949  16.248  20.320  0.00  0.00    +0.132 C 
BRANCH  15  16
ATOM     16  C   UNL     1      45.553  15.233  19.279  0.00  0.00    -0.060 C 
ATOM     17  C   UNL     1      45.715  13.955  19.516  0.00  0.00    -0.124 C 
ATOM     18  C   UNL     1      45.201  12.934  18.533  0.00  0.00    +0.074 C 
ATOM     19  C   UNL     1      46.416  13.505  20.772  0.00  0.00    +0.076 C 
ENDBRANCH  15  16
ENDBRANCH  14  15
TORSDOF 9
ENDMDL
MODEL 7
REMARK VINA RESULT:      -5.1      4.609      7.529
REMARK  Name = ZINC13382373
REMARK  13 active torsions:
REMARK  status: ('A' for Active; 'I' for Inactive)
REMARK    1  A    between atoms: C1_1  and  C2_2
REMARK    2  A    between atoms: C2_2  and  C3_3
REMARK    3  A    between atoms: C2_2  and  C4_4
REMARK    4  A    between atoms: C4_4  and  C5_5
REMARK    5  A    between atoms: C5_5  and  C6_6
REMARK    6  A    between atoms: C6_6  and  C7_8
REMARK    7  A    between atoms: C8_9  and  O4_21
REMARK    8  A    between atoms: C10_11  and  O3_20
REMARK    9  A    between atoms: C11_12  and  C13_15
REMARK   10  A    between atoms: C12_13  and  O2_14
REMARK   11  A    between atoms: C13_15  and  C14_16
REMARK   12  A    between atoms: C15_17  and  C16_18
REMARK   13  A    between atoms: C15_17  and  C17_19
REMARK                            x       y       z     vdW  Elec       q    Type
REMARK                         _______ _______ _______ _____ _____    ______ ____
ROOT
ATOM      6  C   UNL     1      51.589  19.816  18.076  0.00  0.00    -0.238 A 
ATOM      7  C   UNL     1      51.852  20.278  16.773  0.00  0.00    +0.184 A 
ATOM     10  C   UNL     1      52.093  19.371  15.758  0.00  0.00    -0.049 A 
ATOM     11  C   UNL     1      52.077  18.007  16.022  0.00  0.00    +0.177 A 
ATOM     14  C   UNL     1      51.818  17.541  17.305  0.00  0.00    -0.151 A 
ATOM     20  C   UNL     1      51.575  18.432  18.333  0.00  0.00    +0.202 A 
ENDROOT
BRANCH   6   5
ATOM      5  C   UNL     1      51.331  20.767  19.155  0.00  0.00    +0.394 C 
ATOM     23  O   UNL     1      52.200  21.541  19.504  0.00  0.00    -0.439 OA
BRANCH   5   4
ATOM      4  C   UNL     1      49.986  20.788  19.835  0.00  0.00    +0.046 C 
BRANCH   4   3
ATOM      3  C   UNL     1      48.882  20.853  18.777  0.00  0.00    +0.023 C 
BRANCH   3   2
ATOM      1  C   UNL     1      46.396  20.606  18.742  0.00  0.00    +0.015 C 
ATOM      2  C   UNL     1      47.708  19.974  19.211  0.00  0.00    -0.026 C 
ATOM     24  C   UNL     1      47.856  18.584  18.589  0.00  0.00    +0.013 C 
ENDBRANCH   3   2
ENDBRANCH   4   3
ENDBRANCH   5   4
ENDBRANCH   6   5
BRANCH   7   8
ATOM      8  O   UNL     1      51.863  21.609  16.511  0.00  0.00    -0.487 OA
ATOM      9  H   UNL     1      52.623  21.901  15.991  0.00  0.00    +0.400 HD
ENDBRANCH   7   8
BRANCH  11  12
ATOM     12  O   UNL     1      52.315  17.124  15.019  0.00  0.00    -0.487 OA
ATOM     13  H   UNL     1      51.520  16.840  14.549  0.00  0.00    +0.398 HD
ENDBRANCH  11  12
BRANCH  20  21
ATOM     21  O   UNL     1      51.323  17.975  19.585  0.00  0.00    -0.471 OA
ATOM     22  H   UNL     1      51.225  17.015  19.641  0.00  0.00    +0.398 HD
ENDBRANCH  20  21
BRANCH  14  15
ATOM     15  C   UNL     1      51.805  16.058  17.578  0.00  0.00    +0.132 C 
BRANCH  15  16
ATOM     16  C   UNL     1      50.395  15.539  17.453  0.00  0.00    -0.060 C 
ATOM     17  C   UNL     1      50.148  14.489  16.711  0.00  0.00    -0.124 C 
ATOM     18  C   UNL     1      48.765  13.891  16.687  0.00  0.00    +0.074 C 
ATOM     19  C   UNL     1      51.247  13.878  15.879  0.00  0.00    +0.076 C 
ENDBRANCH  15  16
ENDBRANCH  14  15
TORSDOF 9
ENDMDL
MODEL 8
REMARK VINA RESULT:      -5.1      3.192      4.722
REMARK  Name = ZINC13382373
REMARK  13 active torsions:
REMARK  status: ('A' for Active; 'I' for Inactive)
REMARK    1  A    between atoms: C1_1  and  C2_2
REMARK    2  A    between atoms: C2_2  and  C3_3
REMARK    3  A    between atoms: C2_2  and  C4_4
REMARK    4  A    between atoms: C4_4  and  C5_5
REMARK    5  A    between atoms: C5_5  and  C6_6
REMARK    6  A    between atoms: C6_6  and  C7_8
REMARK    7  A    between atoms: C8_9  and  O4_21
REMARK    8  A    between atoms: C10_11  and  O3_20
REMARK    9  A    between atoms: C11_12  and  C13_15
REMARK   10  A    between atoms: C12_13  and  O2_14
REMARK   11  A    between atoms: C13_15  and  C14_16
REMARK   12  A    between atoms: C15_17  and  C16_18
REMARK   13  A    between atoms: C15_17  and  C17_19
REMARK                            x       y       z     vdW  Elec       q    Type
REMARK                         _______ _______ _______ _____ _____    ______ ____
ROOT
ATOM      6  C   UNL     1      43.575  19.355  20.090  0.00  0.00    -0.238 A 
ATOM      7  C   UNL     1      43.104  18.846  21.314  0.00  0.00    +0.184 A 
ATOM     10  C   UNL     1      43.514  17.598  21.743  0.00  0.00    -0.049 A 
ATOM     11  C   UNL     1      44.388  16.846  20.968  0.00  0.00    +0.177 A 
ATOM     14  C   UNL     1      44.858  17.339  19.757  0.00  0.00    -0.151 A 
ATOM     20  C   UNL     1      44.460  18.585  19.311  0.00  0.00    +0.202 A 
ENDROOT
BRANCH   6   5
ATOM      5  C   UNL     1      43.149  20.675  19.628  0.00  0.00    +0.394 C 
ATOM     23  O   UNL     1      42.020  20.838  19.212  0.00  0.00    -0.439 OA
BRANCH   5   4
ATOM      4  C   UNL     1      44.110  21.834  19.671  0.00  0.00    +0.046 C 
BRANCH   4   3
ATOM      3  C   UNL     1      44.838  21.843  21.017  0.00  0.00    +0.023 C 
BRANCH   3   2
ATOM      1  C   UNL     1      46.949  22.566  22.142  0.00  0.00    +0.015 C 
ATOM      2  C   UNL     1      46.308  22.207  20.800  0.00  0.00    -0.026 C 
ATOM     24  C   UNL     1      47.043  21.012  20.188  0.00  0.00    +0.013 C 
ENDBRANCH   3   2
ENDBRANCH   4   3
ENDBRANCH   5   4
ENDBRANCH   6   5
BRANCH   7   8
ATOM      8  O   UNL     1      42.256  19.581  22.075  0.00  0.00    -0.487 OA
ATOM      9  H   UNL     1      41.411  19.777  21.647  0.00  0.00    +0.400 HD
ENDBRANCH   7   8
BRANCH  11  12
ATOM     12  O   UNL     1      44.785  15.621  21.397  0.00  0.00    -0.487 OA
ATOM     13  H   UNL     1      44.302  14.887  20.994  0.00  0.00    +0.398 HD
ENDBRANCH  11  12
BRANCH  20  21
ATOM     21  O   UNL     1      44.921  19.064  18.129  0.00  0.00    -0.471 OA
ATOM     22  H   UNL     1      44.678  19.983  17.956  0.00  0.00    +0.398 HD
ENDBRANCH  20  21
BRANCH  14  15
ATOM     15  C   UNL     1      45.805  16.511  18.926  0.00  0.00    +0.132 C 
BRANCH  15  16
ATOM     16  C   UNL     1      47.226  16.899  19.249  0.00  0.00    -0.060 C 
ATOM     17  C   UNL     1      48.031  17.289  18.294  0.00  0.00    -0.124 C 
ATOM     18  C   UNL     1      49.409  17.799  18.631  0.00  0.00    +0.074 C 
ATOM     19  C   UNL     1      47.582  17.227  16.857  0.00  0.00    +0.076 C 
ENDBRANCH  15  16
ENDBRANCH  14  15
TORSDOF 9
ENDMDL
MODEL 9
REMARK VINA RESULT:      -4.9     20.346     21.585
REMARK  Name = ZINC13382373
REMARK  13 active torsions:
REMARK  status: ('A' for Active; 'I' for Inactive)
REMARK    1  A    between atoms: C1_1  and  C2_2
REMARK    2  A    between atoms: C2_2  and  C3_3
REMARK    3  A    between atoms: C2_2  and  C4_4
REMARK    4  A    between atoms: C4_4  and  C5_5
REMARK    5  A    between atoms: C5_5  and  C6_6
REMARK    6  A    between atoms: C6_6  and  C7_8
REMARK    7  A    between atoms: C8_9  and  O4_21
REMARK    8  A    between atoms: C10_11  and  O3_20
REMARK    9  A    between atoms: C11_12  and  C13_15
REMARK   10  A    between atoms: C12_13  and  O2_14
REMARK   11  A    between atoms: C13_15  and  C14_16
REMARK   12  A    between atoms: C15_17  and  C16_18
REMARK   13  A    between atoms: C15_17  and  C17_19
REMARK                            x       y       z     vdW  Elec       q    Type
REMARK                         _______ _______ _______ _____ _____    ______ ____
ROOT
ATOM      6  C   UNL     1      55.199  32.725   4.841  0.00  0.00    -0.238 A 
ATOM      7  C   UNL     1      55.975  33.454   5.760  0.00  0.00    +0.184 A 
ATOM     10  C   UNL     1      57.352  33.463   5.643  0.00  0.00    -0.049 A 
ATOM     11  C   UNL     1      57.971  32.752   4.622  0.00  0.00    +0.177 A 
ATOM     14  C   UNL     1      57.214  32.029   3.709  0.00  0.00    -0.151 A 
ATOM     20  C   UNL     1      55.836  32.008   3.809  0.00  0.00    +0.202 A 
ENDROOT
BRANCH   6   5
ATOM      5  C   UNL     1      53.742  32.710   4.954  0.00  0.00    +0.394 C 
ATOM     23  O   UNL     1      53.206  32.043   5.815  0.00  0.00    -0.439 OA
BRANCH   5   4
ATOM      4  C   UNL     1      52.905  33.527   4.004  0.00  0.00    +0.046 C 
BRANCH   4   3
ATOM      3  C   UNL     1      51.526  33.771   4.620  0.00  0.00    +0.023 C 
BRANCH   3   2
ATOM      1  C   UNL     1      49.468  34.266   3.293  0.00  0.00    +0.015 C 
ATOM      2  C   UNL     1      50.449  33.171   3.714  0.00  0.00    -0.026 C 
ATOM     24  C   UNL     1      51.107  32.570   2.470  0.00  0.00    +0.013 C 
ENDBRANCH   3   2
ENDBRANCH   4   3
ENDBRANCH   5   4
ENDBRANCH   6   5
BRANCH   7   8
ATOM      8  O   UNL     1      55.373  34.153   6.755  0.00  0.00    -0.487 OA
ATOM      9  H   UNL     1      55.770  34.019   7.626  0.00  0.00    +0.400 HD
ENDBRANCH   7   8
BRANCH  11  12
ATOM     12  O   UNL     1      59.323  32.767   4.515  0.00  0.00    -0.487 OA
ATOM     13  H   UNL     1      59.753  31.970   4.853  0.00  0.00    +0.398 HD
ENDBRANCH  11  12
BRANCH  20  21
ATOM     21  O   UNL     1      55.099  31.301   2.916  0.00  0.00    -0.471 OA
ATOM     22  H   UNL     1      55.387  30.385   2.806  0.00  0.00    +0.398 HD
ENDBRANCH  20  21
BRANCH  14  15
ATOM     15  C   UNL     1      57.898  31.262   2.606  0.00  0.00    +0.132 C 
BRANCH  15  16
ATOM     16  C   UNL     1      58.144  29.845   3.058  0.00  0.00    -0.060 C 
ATOM     17  C   UNL     1      58.179  28.875   2.180  0.00  0.00    -0.124 C 
ATOM     18  C   UNL     1      58.552  27.480   2.613  0.00  0.00    +0.074 C 
ATOM     19  C   UNL     1      57.847  29.152   0.736  0.00  0.00    +0.076 C 
ENDBRANCH  15  16
ENDBRANCH  14  15
TORSDOF 9
ENDMDL
