MODEL 1
REMARK VINA RESULT:      -4.9      0.000      0.000
REMARK  Name = ZINC05962583
REMARK  19 active torsions:
REMARK  status: ('A' for Active; 'I' for Inactive)
REMARK    1  A    between atoms: C1_1  and  C2_2
REMARK    2  A    between atoms: C2_2  and  C3_4
REMARK    3  A    between atoms: C2_2  and  C15_20
REMARK    4  A    between atoms: C3_4  and  C4_5
REMARK    5  A    between atoms: C4_5  and  C5_6
REMARK    6  A    between atoms: C5_6  and  C6_7
REMARK    7  A    between atoms: C6_7  and  C7_9
REMARK    8  A    between atoms: C6_7  and  C8_10
REMARK    9  A    between atoms: C8_10  and  C9_11
REMARK   10  A    between atoms: C9_11  and  C10_12
REMARK   11  A    between atoms: C10_12  and  C11_13
REMARK   12  A    between atoms: C11_13  and  C14_19
REMARK   13  A    between atoms: C12_14  and  C13_17
REMARK   14  A    between atoms: C13_17  and  O2_18
REMARK   15  A    between atoms: C15_20  and  C16_21
REMARK   16  A    between atoms: C16_21  and  C17_22
REMARK   17  A    between atoms: C17_22  and  C18_23
REMARK   18  A    between atoms: C18_23  and  C19_24
REMARK   19  A    between atoms: C18_23  and  C20_25
REMARK                            x       y       z     vdW  Elec       q    Type
REMARK                         _______ _______ _______ _____ _____    ______ ____
ROOT
ATOM     12  C   UNL     1      45.220  17.622  19.781  0.00  0.00    -0.022 C 
ATOM     23  C   UNL     1      45.404  16.105  19.847  0.00  0.00    +0.012 C 
ENDROOT
BRANCH  12  11
ATOM     11  C   UNL     1      46.491  18.266  19.224  0.00  0.00    +0.005 C 
BRANCH  11  10
ATOM     10  C   UNL     1      46.114  19.449  18.330  0.00  0.00    +0.004 C 
BRANCH  10   9
ATOM      9  C   UNL     1      46.939  20.674  18.730  0.00  0.00    +0.005 C 
BRANCH   9   2
ATOM      1  C   UNL     1      46.890  21.426  21.112  0.00  0.00    +0.012 C 
ATOM      2  C   UNL     1      47.535  20.455  20.122  0.00  0.00    -0.024 C 
BRANCH   2   3
ATOM      3  C   UNL     1      49.045  20.702  20.075  0.00  0.00    +0.005 C 
BRANCH   3   4
ATOM      4  C   UNL     1      49.464  21.027  18.640  0.00  0.00    +0.003 C 
BRANCH   4   5
ATOM      5  C   UNL     1      50.990  21.077  18.553  0.00  0.00    +0.005 C 
BRANCH   5   6
ATOM      6  C   UNL     1      51.475  20.082  17.498  0.00  0.00    -0.031 C 
ATOM      7  C   UNL     1      52.628  19.254  18.068  0.00  0.00    +0.012 C 
ATOM      8  C   UNL     1      51.957  20.843  16.261  0.00  0.00    +0.012 C 
ENDBRANCH   5   6
ENDBRANCH   4   5
ENDBRANCH   3   4
ENDBRANCH   2   3
ENDBRANCH   9   2
ENDBRANCH  10   9
ENDBRANCH  11  10
ENDBRANCH  12  11
BRANCH  12  13
ATOM     13  C   UNL     1      44.948  18.163  21.186  0.00  0.00    +0.009 C 
BRANCH  13  14
ATOM     14  C   UNL     1      43.806  19.179  21.129  0.00  0.00    +0.017 C 
BRANCH  14  15
ATOM     15  C   UNL     1      42.841  18.800  20.004  0.00  0.00    +0.059 C 
BRANCH  15  16
ATOM     16  C   UNL     1      42.375  20.066  19.284  0.00  0.00    +0.026 C 
ATOM     17  C   UNL     1      43.170  21.337  19.593  0.00  0.00    +0.084 C 
ATOM     18  C   UNL     1      40.880  20.212  18.993  0.00  0.00    +0.121 C 
ATOM     22  O   UNL     1      41.834  19.924  17.969  0.00  0.00    -0.345 OA
BRANCH  18  19
ATOM     19  C   UNL     1      40.280  21.621  19.033  0.00  0.00    +0.214 C 
BRANCH  19  20
ATOM     20  O   UNL     1      39.628  21.896  17.791  0.00  0.00    -0.570 OA
ATOM     21  H   UNL     1      39.744  22.803  17.480  0.00  0.00    +0.387 HD
ENDBRANCH  19  20
ENDBRANCH  18  19
ENDBRANCH  15  16
ENDBRANCH  14  15
ENDBRANCH  13  14
ENDBRANCH  12  13
TORSDOF 14
ENDMDL
MODEL 2
REMARK VINA RESULT:      -4.8      2.000      4.525
REMARK  Name = ZINC05962583
REMARK  19 active torsions:
REMARK  status: ('A' for Active; 'I' for Inactive)
REMARK    1  A    between atoms: C1_1  and  C2_2
REMARK    2  A    between atoms: C2_2  and  C3_4
REMARK    3  A    between atoms: C2_2  and  C15_20
REMARK    4  A    between atoms: C3_4  and  C4_5
REMARK    5  A    between atoms: C4_5  and  C5_6
REMARK    6  A    between atoms: C5_6  and  C6_7
REMARK    7  A    between atoms: C6_7  and  C7_9
REMARK    8  A    between atoms: C6_7  and  C8_10
REMARK    9  A    between atoms: C8_10  and  C9_11
REMARK   10  A    between atoms: C9_11  and  C10_12
REMARK   11  A    between atoms: C10_12  and  C11_13
REMARK   12  A    between atoms: C11_13  and  C14_19
REMARK   13  A    between atoms: C12_14  and  C13_17
REMARK   14  A    between atoms: C13_17  and  O2_18
REMARK   15  A    between atoms: C15_20  and  C16_21
REMARK   16  A    between atoms: C16_21  and  C17_22
REMARK   17  A    between atoms: C17_22  and  C18_23
REMARK   18  A    between atoms: C18_23  and  C19_24
REMARK   19  A    between atoms: C18_23  and  C20_25
REMARK                            x       y       z     vdW  Elec       q    Type
REMARK                         _______ _______ _______ _____ _____    ______ ____
ROOT
ATOM     12  C   UNL     1      49.175  20.368  20.024  0.00  0.00    -0.022 C 
ATOM     23  C   UNL     1      50.297  20.678  21.017  0.00  0.00    +0.012 C 
ENDROOT
BRANCH  12  11
ATOM     11  C   UNL     1      49.524  20.962  18.658  0.00  0.00    +0.005 C 
BRANCH  11  10
ATOM     10  C   UNL     1      51.045  21.047  18.513  0.00  0.00    +0.004 C 
BRANCH  10   9
ATOM      9  C   UNL     1      51.420  20.994  17.031  0.00  0.00    +0.005 C 
BRANCH   9   2
ATOM      1  C   UNL     1      51.903  19.025  15.571  0.00  0.00    +0.012 C 
ATOM      2  C   UNL     1      52.375  19.824  16.788  0.00  0.00    -0.024 C 
BRANCH   2   3
ATOM      3  C   UNL     1      52.392  18.915  18.020  0.00  0.00    +0.005 C 
BRANCH   3   4
ATOM      4  C   UNL     1      51.640  17.620  17.708  0.00  0.00    +0.003 C 
BRANCH   4   5
ATOM      5  C   UNL     1      50.806  17.210  18.924  0.00  0.00    +0.005 C 
BRANCH   5   6
ATOM      6  C   UNL     1      49.436  16.716  18.459  0.00  0.00    -0.031 C 
ATOM      7  C   UNL     1      48.955  17.573  17.286  0.00  0.00    +0.012 C 
ATOM      8  C   UNL     1      48.436  16.824  19.612  0.00  0.00    +0.012 C 
ENDBRANCH   5   6
ENDBRANCH   4   5
ENDBRANCH   3   4
ENDBRANCH   2   3
ENDBRANCH   9   2
ENDBRANCH  10   9
ENDBRANCH  11  10
ENDBRANCH  12  11
BRANCH  12  13
ATOM     13  C   UNL     1      47.867  20.982  20.527  0.00  0.00    +0.009 C 
BRANCH  13  14
ATOM     14  C   UNL     1      46.687  20.137  20.040  0.00  0.00    +0.017 C 
BRANCH  14  15
ATOM     15  C   UNL     1      45.908  20.914  18.977  0.00  0.00    +0.059 C 
BRANCH  15  16
ATOM     16  C   UNL     1      44.430  20.971  19.367  0.00  0.00    +0.026 C 
ATOM     17  C   UNL     1      43.545  19.869  18.780  0.00  0.00    +0.084 C 
ATOM     18  C   UNL     1      43.803  22.349  19.587  0.00  0.00    +0.121 C 
ATOM     22  O   UNL     1      44.103  21.463  20.668  0.00  0.00    -0.345 OA
BRANCH  18  19
ATOM     19  C   UNL     1      42.332  22.533  19.203  0.00  0.00    +0.214 C 
BRANCH  19  20
ATOM     20  O   UNL     1      42.200  23.682  18.363  0.00  0.00    -0.570 OA
ATOM     21  H   UNL     1      42.997  23.894  17.859  0.00  0.00    +0.387 HD
ENDBRANCH  19  20
ENDBRANCH  18  19
ENDBRANCH  15  16
ENDBRANCH  14  15
ENDBRANCH  13  14
ENDBRANCH  12  13
TORSDOF 14
ENDMDL
MODEL 3
REMARK VINA RESULT:      -4.6      3.302      7.996
REMARK  Name = ZINC05962583
REMARK  19 active torsions:
REMARK  status: ('A' for Active; 'I' for Inactive)
REMARK    1  A    between atoms: C1_1  and  C2_2
REMARK    2  A    between atoms: C2_2  and  C3_4
REMARK    3  A    between atoms: C2_2  and  C15_20
REMARK    4  A    between atoms: C3_4  and  C4_5
REMARK    5  A    between atoms: C4_5  and  C5_6
REMARK    6  A    between atoms: C5_6  and  C6_7
REMARK    7  A    between atoms: C6_7  and  C7_9
REMARK    8  A    between atoms: C6_7  and  C8_10
REMARK    9  A    between atoms: C8_10  and  C9_11
REMARK   10  A    between atoms: C9_11  and  C10_12
REMARK   11  A    between atoms: C10_12  and  C11_13
REMARK   12  A    between atoms: C11_13  and  C14_19
REMARK   13  A    between atoms: C12_14  and  C13_17
REMARK   14  A    between atoms: C13_17  and  O2_18
REMARK   15  A    between atoms: C15_20  and  C16_21
REMARK   16  A    between atoms: C16_21  and  C17_22
REMARK   17  A    between atoms: C17_22  and  C18_23
REMARK   18  A    between atoms: C18_23  and  C19_24
REMARK   19  A    between atoms: C18_23  and  C20_25
REMARK                            x       y       z     vdW  Elec       q    Type
REMARK                         _______ _______ _______ _____ _____    ______ ____
ROOT
ATOM     12  C   UNL     1      45.196  21.622  19.893  0.00  0.00    -0.022 C 
ATOM     23  C   UNL     1      44.991  23.129  19.725  0.00  0.00    +0.012 C 
ENDROOT
BRANCH  12  11
ATOM     11  C   UNL     1      45.781  21.339  21.279  0.00  0.00    +0.005 C 
BRANCH  11  10
ATOM     10  C   UNL     1      44.777  20.528  22.100  0.00  0.00    +0.004 C 
BRANCH  10   9
ATOM      9  C   UNL     1      45.121  19.040  22.001  0.00  0.00    +0.005 C 
BRANCH   9   2
ATOM      1  C   UNL     1      44.457  17.952  19.852  0.00  0.00    +0.012 C 
ATOM      2  C   UNL     1      43.997  18.305  21.268  0.00  0.00    -0.024 C 
BRANCH   2   3
ATOM      3  C   UNL     1      42.761  19.204  21.194  0.00  0.00    +0.005 C 
BRANCH   3   4
ATOM      4  C   UNL     1      42.302  19.322  19.740  0.00  0.00    +0.003 C 
BRANCH   4   5
ATOM      5  C   UNL     1      40.857  19.822  19.700  0.00  0.00    +0.005 C 
BRANCH   5   6
ATOM      6  C   UNL     1      40.709  20.870  18.597  0.00  0.00    -0.031 C 
ATOM      7  C   UNL     1      41.695  22.014  18.844  0.00  0.00    +0.012 C 
ATOM      8  C   UNL     1      39.281  21.418  18.600  0.00  0.00    +0.012 C 
ENDBRANCH   5   6
ENDBRANCH   4   5
ENDBRANCH   3   4
ENDBRANCH   2   3
ENDBRANCH   9   2
ENDBRANCH  10   9
ENDBRANCH  11  10
ENDBRANCH  12  11
BRANCH  12  13
ATOM     13  C   UNL     1      46.162  21.117  18.820  0.00  0.00    +0.009 C 
BRANCH  13  14
ATOM     14  C   UNL     1      47.493  20.732  19.470  0.00  0.00    +0.017 C 
BRANCH  14  15
ATOM     15  C   UNL     1      47.946  19.371  18.940  0.00  0.00    +0.059 C 
BRANCH  15  16
ATOM     16  C   UNL     1      49.456  19.394  18.700  0.00  0.00    +0.026 C 
ATOM     17  C   UNL     1      50.097  20.782  18.635  0.00  0.00    +0.084 C 
ATOM     18  C   UNL     1      50.057  18.289  17.828  0.00  0.00    +0.121 C 
ATOM     22  O   UNL     1      50.234  18.327  19.246  0.00  0.00    -0.345 OA
BRANCH  18  19
ATOM     19  C   UNL     1      51.258  18.647  16.949  0.00  0.00    +0.214 C 
BRANCH  19  20
ATOM     20  O   UNL     1      52.434  18.028  17.474  0.00  0.00    -0.570 OA
ATOM     21  H   UNL     1      53.187  18.038  16.868  0.00  0.00    +0.387 HD
ENDBRANCH  19  20
ENDBRANCH  18  19
ENDBRANCH  15  16
ENDBRANCH  14  15
ENDBRANCH  13  14
ENDBRANCH  12  13
TORSDOF 14
ENDMDL
MODEL 4
REMARK VINA RESULT:      -4.6      1.893      2.642
REMARK  Name = ZINC05962583
REMARK  19 active torsions:
REMARK  status: ('A' for Active; 'I' for Inactive)
REMARK    1  A    between atoms: C1_1  and  C2_2
REMARK    2  A    between atoms: C2_2  and  C3_4
REMARK    3  A    between atoms: C2_2  and  C15_20
REMARK    4  A    between atoms: C3_4  and  C4_5
REMARK    5  A    between atoms: C4_5  and  C5_6
REMARK    6  A    between atoms: C5_6  and  C6_7
REMARK    7  A    between atoms: C6_7  and  C7_9
REMARK    8  A    between atoms: C6_7  and  C8_10
REMARK    9  A    between atoms: C8_10  and  C9_11
REMARK   10  A    between atoms: C9_11  and  C10_12
REMARK   11  A    between atoms: C10_12  and  C11_13
REMARK   12  A    between atoms: C11_13  and  C14_19
REMARK   13  A    between atoms: C12_14  and  C13_17
REMARK   14  A    between atoms: C13_17  and  O2_18
REMARK   15  A    between atoms: C15_20  and  C16_21
REMARK   16  A    between atoms: C16_21  and  C17_22
REMARK   17  A    between atoms: C17_22  and  C18_23
REMARK   18  A    between atoms: C18_23  and  C19_24
REMARK   19  A    between atoms: C18_23  and  C20_25
REMARK                            x       y       z     vdW  Elec       q    Type
REMARK                         _______ _______ _______ _____ _____    ______ ____
ROOT
ATOM     12  C   UNL     1      46.783  16.937  18.338  0.00  0.00    -0.022 C 
ATOM     23  C   UNL     1      46.415  16.294  17.000  0.00  0.00    +0.012 C 
ENDROOT
BRANCH  12  11
ATOM     11  C   UNL     1      48.047  16.277  18.891  0.00  0.00    +0.005 C 
BRANCH  11  10
ATOM     10  C   UNL     1      49.265  17.135  18.542  0.00  0.00    +0.004 C 
BRANCH  10   9
ATOM      9  C   UNL     1      48.836  18.597  18.401  0.00  0.00    +0.005 C 
BRANCH   9   2
ATOM      1  C   UNL     1      49.038  20.880  19.398  0.00  0.00    +0.012 C 
ATOM      2  C   UNL     1      49.335  19.393  19.609  0.00  0.00    -0.024 C 
BRANCH   2   3
ATOM      3  C   UNL     1      50.844  19.192  19.765  0.00  0.00    +0.005 C 
BRANCH   3   4
ATOM      4  C   UNL     1      51.587  20.269  18.973  0.00  0.00    +0.003 C 
BRANCH   4   5
ATOM      5  C   UNL     1      52.630  19.610  18.069  0.00  0.00    +0.005 C 
BRANCH   5   6
ATOM      6  C   UNL     1      52.308  19.919  16.607  0.00  0.00    -0.031 C 
ATOM      7  C   UNL     1      51.426  21.168  16.532  0.00  0.00    +0.012 C 
ATOM      8  C   UNL     1      51.566  18.734  15.986  0.00  0.00    +0.012 C 
ENDBRANCH   5   6
ENDBRANCH   4   5
ENDBRANCH   3   4
ENDBRANCH   2   3
ENDBRANCH   9   2
ENDBRANCH  10   9
ENDBRANCH  11  10
ENDBRANCH  12  11
BRANCH  12  13
ATOM     13  C   UNL     1      45.633  16.745  19.329  0.00  0.00    +0.009 C 
BRANCH  13  14
ATOM     14  C   UNL     1      45.443  18.024  20.146  0.00  0.00    +0.017 C 
BRANCH  14  15
ATOM     15  C   UNL     1      44.014  18.537  19.967  0.00  0.00    +0.059 C 
BRANCH  15  16
ATOM     16  C   UNL     1      44.041  19.873  19.223  0.00  0.00    +0.026 C 
ATOM     17  C   UNL     1      45.415  20.329  18.726  0.00  0.00    +0.084 C 
ATOM     18  C   UNL     1      43.045  20.951  19.655  0.00  0.00    +0.121 C 
ATOM     22  O   UNL     1      42.900  20.220  18.435  0.00  0.00    -0.345 OA
BRANCH  18  19
ATOM     19  C   UNL     1      43.491  22.413  19.563  0.00  0.00    +0.214 C 
BRANCH  19  20
ATOM     20  O   UNL     1      43.708  22.928  20.878  0.00  0.00    -0.570 OA
ATOM     21  H   UNL     1      42.944  22.847  21.463  0.00  0.00    +0.387 HD
ENDBRANCH  19  20
ENDBRANCH  18  19
ENDBRANCH  15  16
ENDBRANCH  14  15
ENDBRANCH  13  14
ENDBRANCH  12  13
TORSDOF 14
ENDMDL
MODEL 5
REMARK VINA RESULT:      -4.5      2.619      5.560
REMARK  Name = ZINC05962583
REMARK  19 active torsions:
REMARK  status: ('A' for Active; 'I' for Inactive)
REMARK    1  A    between atoms: C1_1  and  C2_2
REMARK    2  A    between atoms: C2_2  and  C3_4
REMARK    3  A    between atoms: C2_2  and  C15_20
REMARK    4  A    between atoms: C3_4  and  C4_5
REMARK    5  A    between atoms: C4_5  and  C5_6
REMARK    6  A    between atoms: C5_6  and  C6_7
REMARK    7  A    between atoms: C6_7  and  C7_9
REMARK    8  A    between atoms: C6_7  and  C8_10
REMARK    9  A    between atoms: C8_10  and  C9_11
REMARK   10  A    between atoms: C9_11  and  C10_12
REMARK   11  A    between atoms: C10_12  and  C11_13
REMARK   12  A    between atoms: C11_13  and  C14_19
REMARK   13  A    between atoms: C12_14  and  C13_17
REMARK   14  A    between atoms: C13_17  and  O2_18
REMARK   15  A    between atoms: C15_20  and  C16_21
REMARK   16  A    between atoms: C16_21  and  C17_22
REMARK   17  A    between atoms: C17_22  and  C18_23
REMARK   18  A    between atoms: C18_23  and  C19_24
REMARK   19  A    between atoms: C18_23  and  C20_25
REMARK                            x       y       z     vdW  Elec       q    Type
REMARK                         _______ _______ _______ _____ _____    ______ ____
ROOT
ATOM     12  C   UNL     1      51.255  20.733  19.873  0.00  0.00    -0.022 C 
ATOM     23  C   UNL     1      52.044  21.812  20.618  0.00  0.00    +0.012 C 
ENDROOT
BRANCH  12  11
ATOM     11  C   UNL     1      50.835  21.265  18.502  0.00  0.00    +0.005 C 
BRANCH  11  10
ATOM     10  C   UNL     1      51.799  20.745  17.434  0.00  0.00    +0.004 C 
BRANCH  10   9
ATOM      9  C   UNL     1      52.510  19.495  17.956  0.00  0.00    +0.005 C 
BRANCH   9   2
ATOM      1  C   UNL     1      51.246  18.691  15.955  0.00  0.00    +0.012 C 
ATOM      2  C   UNL     1      51.963  18.260  17.236  0.00  0.00    -0.024 C 
BRANCH   2   3
ATOM      3  C   UNL     1      50.977  17.531  18.152  0.00  0.00    +0.005 C 
BRANCH   3   4
ATOM      4  C   UNL     1      49.555  17.716  17.621  0.00  0.00    +0.003 C 
BRANCH   4   5
ATOM      5  C   UNL     1      48.579  16.915  18.485  0.00  0.00    +0.005 C 
BRANCH   5   6
ATOM      6  C   UNL     1      47.266  17.687  18.621  0.00  0.00    -0.031 C 
ATOM      7  C   UNL     1      46.758  17.580  20.060  0.00  0.00    +0.012 C 
ATOM      8  C   UNL     1      46.225  17.095  17.668  0.00  0.00    +0.012 C 
ENDBRANCH   5   6
ENDBRANCH   4   5
ENDBRANCH   3   4
ENDBRANCH   2   3
ENDBRANCH   9   2
ENDBRANCH  10   9
ENDBRANCH  11  10
ENDBRANCH  12  11
BRANCH  12  13
ATOM     13  C   UNL     1      50.010  20.364  20.680  0.00  0.00    +0.009 C 
BRANCH  13  14
ATOM     14  C   UNL     1      48.759  20.824  19.929  0.00  0.00    +0.017 C 
BRANCH  14  15
ATOM     15  C   UNL     1      47.654  21.158  20.933  0.00  0.00    +0.059 C 
BRANCH  15  16
ATOM     16  C   UNL     1      46.332  21.356  20.189  0.00  0.00    +0.026 C 
ATOM     17  C   UNL     1      46.377  21.114  18.679  0.00  0.00    +0.084 C 
ATOM     18  C   UNL     1      45.374  22.428  20.712  0.00  0.00    +0.121 C 
ATOM     22  O   UNL     1      45.124  21.030  20.879  0.00  0.00    -0.345 OA
BRANCH  18  19
ATOM     19  C   UNL     1      44.525  23.187  19.688  0.00  0.00    +0.214 C 
BRANCH  19  20
ATOM     20  O   UNL     1      43.160  23.195  20.113  0.00  0.00    -0.570 OA
ATOM     21  H   UNL     1      42.609  22.532  19.676  0.00  0.00    +0.387 HD
ENDBRANCH  19  20
ENDBRANCH  18  19
ENDBRANCH  15  16
ENDBRANCH  14  15
ENDBRANCH  13  14
ENDBRANCH  12  13
TORSDOF 14
ENDMDL
MODEL 6
REMARK VINA RESULT:      -4.5      1.463      2.757
REMARK  Name = ZINC05962583
REMARK  19 active torsions:
REMARK  status: ('A' for Active; 'I' for Inactive)
REMARK    1  A    between atoms: C1_1  and  C2_2
REMARK    2  A    between atoms: C2_2  and  C3_4
REMARK    3  A    between atoms: C2_2  and  C15_20
REMARK    4  A    between atoms: C3_4  and  C4_5
REMARK    5  A    between atoms: C4_5  and  C5_6
REMARK    6  A    between atoms: C5_6  and  C6_7
REMARK    7  A    between atoms: C6_7  and  C7_9
REMARK    8  A    between atoms: C6_7  and  C8_10
REMARK    9  A    between atoms: C8_10  and  C9_11
REMARK   10  A    between atoms: C9_11  and  C10_12
REMARK   11  A    between atoms: C10_12  and  C11_13
REMARK   12  A    between atoms: C11_13  and  C14_19
REMARK   13  A    between atoms: C12_14  and  C13_17
REMARK   14  A    between atoms: C13_17  and  O2_18
REMARK   15  A    between atoms: C15_20  and  C16_21
REMARK   16  A    between atoms: C16_21  and  C17_22
REMARK   17  A    between atoms: C17_22  and  C18_23
REMARK   18  A    between atoms: C18_23  and  C19_24
REMARK   19  A    between atoms: C18_23  and  C20_25
REMARK                            x       y       z     vdW  Elec       q    Type
REMARK                         _______ _______ _______ _____ _____    ______ ____
ROOT
ATOM     12  C   UNL     1      47.063  18.771  18.732  0.00  0.00    -0.022 C 
ATOM     23  C   UNL     1      46.983  17.417  18.024  0.00  0.00    +0.012 C 
ENDROOT
BRANCH  12  11
ATOM     11  C   UNL     1      48.486  18.992  19.250  0.00  0.00    +0.005 C 
BRANCH  11  10
ATOM     10  C   UNL     1      48.851  20.472  19.124  0.00  0.00    +0.004 C 
BRANCH  10   9
ATOM      9  C   UNL     1      49.951  20.814  20.130  0.00  0.00    +0.005 C 
BRANCH   9   2
ATOM      1  C   UNL     1      52.290  21.693  20.173  0.00  0.00    +0.012 C 
ATOM      2  C   UNL     1      51.311  20.783  19.428  0.00  0.00    -0.024 C 
BRANCH   2   3
ATOM      3  C   UNL     1      51.153  21.274  17.987  0.00  0.00    +0.005 C 
BRANCH   3   4
ATOM      4  C   UNL     1      51.838  20.292  17.036  0.00  0.00    +0.003 C 
BRANCH   4   5
ATOM      5  C   UNL     1      52.427  19.130  17.840  0.00  0.00    +0.005 C 
BRANCH   5   6
ATOM      6  C   UNL     1      51.834  17.812  17.341  0.00  0.00    -0.031 C 
ATOM      7  C   UNL     1      50.648  18.103  16.419  0.00  0.00    +0.012 C 
ATOM      8  C   UNL     1      51.360  16.981  18.535  0.00  0.00    +0.012 C 
ENDBRANCH   5   6
ENDBRANCH   4   5
ENDBRANCH   3   4
ENDBRANCH   2   3
ENDBRANCH   9   2
ENDBRANCH  10   9
ENDBRANCH  11  10
ENDBRANCH  12  11
BRANCH  12  13
ATOM     13  C   UNL     1      46.084  18.789  19.907  0.00  0.00    +0.009 C 
BRANCH  13  14
ATOM     14  C   UNL     1      44.663  18.557  19.391  0.00  0.00    +0.017 C 
BRANCH  14  15
ATOM     15  C   UNL     1      44.167  19.817  18.679  0.00  0.00    +0.059 C 
BRANCH  15  16
ATOM     16  C   UNL     1      42.869  20.295  19.332  0.00  0.00    +0.026 C 
ATOM     17  C   UNL     1      42.360  19.445  20.498  0.00  0.00    +0.084 C 
ATOM     18  C   UNL     1      41.830  20.976  18.439  0.00  0.00    +0.121 C 
ATOM     22  O   UNL     1      42.626  21.702  19.379  0.00  0.00    -0.345 OA
BRANCH  18  19
ATOM     19  C   UNL     1      40.352  20.760  18.772  0.00  0.00    +0.214 C 
BRANCH  19  20
ATOM     20  O   UNL     1      39.620  21.956  18.492  0.00  0.00    -0.570 OA
ATOM     21  H   UNL     1      38.741  21.981  18.891  0.00  0.00    +0.387 HD
ENDBRANCH  19  20
ENDBRANCH  18  19
ENDBRANCH  15  16
ENDBRANCH  14  15
ENDBRANCH  13  14
ENDBRANCH  12  13
TORSDOF 14
ENDMDL
MODEL 7
REMARK VINA RESULT:      -4.5      3.609      7.403
REMARK  Name = ZINC05962583
REMARK  19 active torsions:
REMARK  status: ('A' for Active; 'I' for Inactive)
REMARK    1  A    between atoms: C1_1  and  C2_2
REMARK    2  A    between atoms: C2_2  and  C3_4
REMARK    3  A    between atoms: C2_2  and  C15_20
REMARK    4  A    between atoms: C3_4  and  C4_5
REMARK    5  A    between atoms: C4_5  and  C5_6
REMARK    6  A    between atoms: C5_6  and  C6_7
REMARK    7  A    between atoms: C6_7  and  C7_9
REMARK    8  A    between atoms: C6_7  and  C8_10
REMARK    9  A    between atoms: C8_10  and  C9_11
REMARK   10  A    between atoms: C9_11  and  C10_12
REMARK   11  A    between atoms: C10_12  and  C11_13
REMARK   12  A    between atoms: C11_13  and  C14_19
REMARK   13  A    between atoms: C12_14  and  C13_17
REMARK   14  A    between atoms: C13_17  and  O2_18
REMARK   15  A    between atoms: C15_20  and  C16_21
REMARK   16  A    between atoms: C16_21  and  C17_22
REMARK   17  A    between atoms: C17_22  and  C18_23
REMARK   18  A    between atoms: C18_23  and  C19_24
REMARK   19  A    between atoms: C18_23  and  C20_25
REMARK                            x       y       z     vdW  Elec       q    Type
REMARK                         _______ _______ _______ _____ _____    ______ ____
ROOT
ATOM     12  C   UNL     1      51.633  19.351  17.160  0.00  0.00    -0.022 C 
ATOM     23  C   UNL     1      52.054  19.414  15.690  0.00  0.00    +0.012 C 
ENDROOT
BRANCH  12  11
ATOM     11  C   UNL     1      52.356  20.448  17.944  0.00  0.00    +0.005 C 
BRANCH  11  10
ATOM     10  C   UNL     1      51.391  21.077  18.951  0.00  0.00    +0.004 C 
BRANCH  10   9
ATOM      9  C   UNL     1      49.970  21.041  18.386  0.00  0.00    +0.005 C 
BRANCH   9   2
ATOM      1  C   UNL     1      49.737  20.322  20.768  0.00  0.00    +0.012 C 
ATOM      2  C   UNL     1      48.977  20.772  19.519  0.00  0.00    -0.024 C 
BRANCH   2   3
ATOM      3  C   UNL     1      48.001  19.673  19.092  0.00  0.00    +0.005 C 
BRANCH   3   4
ATOM      4  C   UNL     1      46.587  20.045  19.540  0.00  0.00    +0.003 C 
BRANCH   4   5
ATOM      5  C   UNL     1      46.043  21.159  18.643  0.00  0.00    +0.005 C 
BRANCH   5   6
ATOM      6  C   UNL     1      45.187  22.113  19.476  0.00  0.00    -0.031 C 
ATOM      7  C   UNL     1      45.887  22.398  20.806  0.00  0.00    +0.012 C 
ATOM      8  C   UNL     1      43.823  21.472  19.745  0.00  0.00    +0.012 C 
ENDBRANCH   5   6
ENDBRANCH   4   5
ENDBRANCH   3   4
ENDBRANCH   2   3
ENDBRANCH   9   2
ENDBRANCH  10   9
ENDBRANCH  11  10
ENDBRANCH  12  11
BRANCH  12  13
ATOM     13  C   UNL     1      52.004  17.984  17.738  0.00  0.00    +0.009 C 
BRANCH  13  14
ATOM     14  C   UNL     1      50.768  17.350  18.381  0.00  0.00    +0.017 C 
BRANCH  14  15
ATOM     15  C   UNL     1      49.736  17.030  17.298  0.00  0.00    +0.059 C 
BRANCH  15  16
ATOM     16  C   UNL     1      49.444  15.529  17.299  0.00  0.00    +0.026 C 
ATOM     17  C   UNL     1      50.568  14.633  16.774  0.00  0.00    +0.084 C 
ATOM     18  C   UNL     1      48.002  15.083  17.053  0.00  0.00    +0.121 C 
ATOM     22  O   UNL     1      48.615  15.012  18.342  0.00  0.00    -0.345 OA
BRANCH  18  19
ATOM     19  C   UNL     1      47.780  13.771  16.295  0.00  0.00    +0.214 C 
BRANCH  19  20
ATOM     20  O   UNL     1      47.081  14.036  15.077  0.00  0.00    -0.570 OA
ATOM     21  H   UNL     1      46.338  13.440  14.913  0.00  0.00    +0.387 HD
ENDBRANCH  19  20
ENDBRANCH  18  19
ENDBRANCH  15  16
ENDBRANCH  14  15
ENDBRANCH  13  14
ENDBRANCH  12  13
TORSDOF 14
ENDMDL
MODEL 8
REMARK VINA RESULT:      -4.4      1.773      3.344
REMARK  Name = ZINC05962583
REMARK  19 active torsions:
REMARK  status: ('A' for Active; 'I' for Inactive)
REMARK    1  A    between atoms: C1_1  and  C2_2
REMARK    2  A    between atoms: C2_2  and  C3_4
REMARK    3  A    between atoms: C2_2  and  C15_20
REMARK    4  A    between atoms: C3_4  and  C4_5
REMARK    5  A    between atoms: C4_5  and  C5_6
REMARK    6  A    between atoms: C5_6  and  C6_7
REMARK    7  A    between atoms: C6_7  and  C7_9
REMARK    8  A    between atoms: C6_7  and  C8_10
REMARK    9  A    between atoms: C8_10  and  C9_11
REMARK   10  A    between atoms: C9_11  and  C10_12
REMARK   11  A    between atoms: C10_12  and  C11_13
REMARK   12  A    between atoms: C11_13  and  C14_19
REMARK   13  A    between atoms: C12_14  and  C13_17
REMARK   14  A    between atoms: C13_17  and  O2_18
REMARK   15  A    between atoms: C15_20  and  C16_21
REMARK   16  A    between atoms: C16_21  and  C17_22
REMARK   17  A    between atoms: C17_22  and  C18_23
REMARK   18  A    between atoms: C18_23  and  C19_24
REMARK   19  A    between atoms: C18_23  and  C20_25
REMARK                            x       y       z     vdW  Elec       q    Type
REMARK                         _______ _______ _______ _____ _____    ______ ____
ROOT
ATOM     12  C   UNL     1      47.486  20.795  20.551  0.00  0.00    -0.022 C 
ATOM     23  C   UNL     1      48.061  21.262  21.890  0.00  0.00    +0.012 C 
ENDROOT
BRANCH  12  11
ATOM     11  C   UNL     1      48.549  20.944  19.460  0.00  0.00    +0.005 C 
BRANCH  11  10
ATOM     10  C   UNL     1      49.399  19.673  19.399  0.00  0.00    +0.004 C 
BRANCH  10   9
ATOM      9  C   UNL     1      48.484  18.447  19.412  0.00  0.00    +0.005 C 
BRANCH   9   2
ATOM      1  C   UNL     1      50.304  16.753  19.164  0.00  0.00    +0.012 C 
ATOM      2  C   UNL     1      49.068  17.365  18.501  0.00  0.00    -0.024 C 
BRANCH   2   3
ATOM      3  C   UNL     1      49.464  17.986  17.159  0.00  0.00    +0.005 C 
BRANCH   3   4
ATOM      4  C   UNL     1      50.955  17.755  16.910  0.00  0.00    +0.003 C 
BRANCH   4   5
ATOM      5  C   UNL     1      51.462  18.765  15.878  0.00  0.00    +0.005 C 
BRANCH   5   6
ATOM      6  C   UNL     1      52.271  19.854  16.584  0.00  0.00    -0.031 C 
ATOM      7  C   UNL     1      52.598  19.403  18.009  0.00  0.00    +0.012 C 
ATOM      8  C   UNL     1      51.453  21.146  16.633  0.00  0.00    +0.012 C 
ENDBRANCH   5   6
ENDBRANCH   4   5
ENDBRANCH   3   4
ENDBRANCH   2   3
ENDBRANCH   9   2
ENDBRANCH  10   9
ENDBRANCH  11  10
ENDBRANCH  12  11
BRANCH  12  13
ATOM     13  C   UNL     1      46.268  21.648  20.194  0.00  0.00    +0.009 C 
BRANCH  13  14
ATOM     14  C   UNL     1      45.821  21.329  18.766  0.00  0.00    +0.017 C 
BRANCH  14  15
ATOM     15  C   UNL     1      45.017  20.028  18.761  0.00  0.00    +0.059 C 
BRANCH  15  16
ATOM     16  C   UNL     1      43.722  20.227  19.550  0.00  0.00    +0.026 C 
ATOM     17  C   UNL     1      43.689  19.593  20.943  0.00  0.00    +0.084 C 
ATOM     18  C   UNL     1      42.411  20.291  18.764  0.00  0.00    +0.121 C 
ATOM     22  O   UNL     1      43.005  21.448  19.358  0.00  0.00    -0.345 OA
BRANCH  18  19
ATOM     19  C   UNL     1      41.154  19.716  19.424  0.00  0.00    +0.214 C 
BRANCH  19  20
ATOM     20  O   UNL     1      40.328  20.785  19.890  0.00  0.00    -0.570 OA
ATOM     21  H   UNL     1      39.451  20.809  19.485  0.00  0.00    +0.387 HD
ENDBRANCH  19  20
ENDBRANCH  18  19
ENDBRANCH  15  16
ENDBRANCH  14  15
ENDBRANCH  13  14
ENDBRANCH  12  13
TORSDOF 14
ENDMDL
MODEL 9
REMARK VINA RESULT:      -4.4      1.896      3.474
REMARK  Name = ZINC05962583
REMARK  19 active torsions:
REMARK  status: ('A' for Active; 'I' for Inactive)
REMARK    1  A    between atoms: C1_1  and  C2_2
REMARK    2  A    between atoms: C2_2  and  C3_4
REMARK    3  A    between atoms: C2_2  and  C15_20
REMARK    4  A    between atoms: C3_4  and  C4_5
REMARK    5  A    between atoms: C4_5  and  C5_6
REMARK    6  A    between atoms: C5_6  and  C6_7
REMARK    7  A    between atoms: C6_7  and  C7_9
REMARK    8  A    between atoms: C6_7  and  C8_10
REMARK    9  A    between atoms: C8_10  and  C9_11
REMARK   10  A    between atoms: C9_11  and  C10_12
REMARK   11  A    between atoms: C10_12  and  C11_13
REMARK   12  A    between atoms: C11_13  and  C14_19
REMARK   13  A    between atoms: C12_14  and  C13_17
REMARK   14  A    between atoms: C13_17  and  O2_18
REMARK   15  A    between atoms: C15_20  and  C16_21
REMARK   16  A    between atoms: C16_21  and  C17_22
REMARK   17  A    between atoms: C17_22  and  C18_23
REMARK   18  A    between atoms: C18_23  and  C19_24
REMARK   19  A    between atoms: C18_23  and  C20_25
REMARK                            x       y       z     vdW  Elec       q    Type
REMARK                         _______ _______ _______ _____ _____    ______ ____
ROOT
ATOM     12  C   UNL     1      46.635  17.060  17.390  0.00  0.00    -0.022 C 
ATOM     23  C   UNL     1      46.847  15.601  16.981  0.00  0.00    +0.012 C 
ENDROOT
BRANCH  12  11
ATOM     11  C   UNL     1      47.966  17.810  17.312  0.00  0.00    +0.005 C 
BRANCH  11  10
ATOM     10  C   UNL     1      49.116  16.803  17.241  0.00  0.00    +0.004 C 
BRANCH  10   9
ATOM      9  C   UNL     1      50.220  17.219  18.215  0.00  0.00    +0.005 C 
BRANCH   9   2
ATOM      1  C   UNL     1      52.696  17.332  18.533  0.00  0.00    +0.012 C 
ATOM      2  C   UNL     1      51.574  17.161  17.506  0.00  0.00    -0.024 C 
BRANCH   2   3
ATOM      3  C   UNL     1      51.657  18.284  16.469  0.00  0.00    +0.005 C 
BRANCH   3   4
ATOM      4  C   UNL     1      52.270  19.528  17.113  0.00  0.00    +0.003 C 
BRANCH   4   5
ATOM      5  C   UNL     1      51.305  20.707  16.967  0.00  0.00    +0.005 C 
BRANCH   5   6
ATOM      6  C   UNL     1      51.020  21.307  18.344  0.00  0.00    -0.031 C 
ATOM      7  C   UNL     1      52.143  20.923  19.310  0.00  0.00    +0.012 C 
ATOM      8  C   UNL     1      49.688  20.769  18.870  0.00  0.00    +0.012 C 
ENDBRANCH   5   6
ENDBRANCH   4   5
ENDBRANCH   3   4
ENDBRANCH   2   3
ENDBRANCH   9   2
ENDBRANCH  10   9
ENDBRANCH  11  10
ENDBRANCH  12  11
BRANCH  12  13
ATOM     13  C   UNL     1      46.104  17.114  18.824  0.00  0.00    +0.009 C 
BRANCH  13  14
ATOM     14  C   UNL     1      45.989  18.573  19.271  0.00  0.00    +0.017 C 
BRANCH  14  15
ATOM     15  C   UNL     1      44.915  19.279  18.441  0.00  0.00    +0.059 C 
BRANCH  15  16
ATOM     16  C   UNL     1      43.747  19.672  19.347  0.00  0.00    +0.026 C 
ATOM     17  C   UNL     1      43.593  18.848  20.628  0.00  0.00    +0.084 C 
ATOM     18  C   UNL     1      42.476  20.202  18.682  0.00  0.00    +0.121 C 
ATOM     22  O   UNL     1      43.377  21.051  19.396  0.00  0.00    -0.345 OA
BRANCH  18  19
ATOM     19  C   UNL     1      41.134  19.870  19.341  0.00  0.00    +0.214 C 
BRANCH  19  20
ATOM     20  O   UNL     1      40.410  21.079  19.581  0.00  0.00    -0.570 OA
ATOM     21  H   UNL     1      40.923  21.762  20.031  0.00  0.00    +0.387 HD
ENDBRANCH  19  20
ENDBRANCH  18  19
ENDBRANCH  15  16
ENDBRANCH  14  15
ENDBRANCH  13  14
ENDBRANCH  12  13
TORSDOF 14
ENDMDL
