MODEL 1
REMARK VINA RESULT:      -7.3      0.000      0.000
REMARK  Name = ZINC95486257
REMARK  16 active torsions:
REMARK  status: ('A' for Active; 'I' for Inactive)
REMARK    1  A    between atoms: C3_3  and  O11_39
REMARK    2  A    between atoms: C4_4  and  O10_38
REMARK    3  A    between atoms: C6_6  and  C7_7
REMARK    4  A    between atoms: C8_8  and  C9_9
REMARK    5  A    between atoms: C9_9  and  C10_10
REMARK    6  A    between atoms: C10_10  and  C11_11
REMARK    7  A    between atoms: C10_10  and  O4_21
REMARK    8  A    between atoms: C11_11  and  C12_12
REMARK    9  A    between atoms: C15_15  and  O2_19
REMARK   10  A    between atoms: C16_16  and  O1_18
REMARK   11  A    between atoms: O4_21  and  C18_22
REMARK   12  A    between atoms: C19_24  and  O9_37
REMARK   13  A    between atoms: C20_26  and  O8_36
REMARK   14  A    between atoms: C21_28  and  O7_35
REMARK   15  A    between atoms: C22_30  and  C23_33
REMARK   16  A    between atoms: C23_33  and  O6_34
REMARK                            x       y       z     vdW  Elec       q    Type
REMARK                         _______ _______ _______ _____ _____    ______ ____
ROOT
ATOM     14  C   UNL     1      45.732  18.195  20.821  0.00  0.00    +0.156 C 
ENDROOT
BRANCH  14  15
ATOM     15  C   UNL     1      45.195  16.853  20.397  0.00  0.00    +0.381 C 
ATOM     16  O   UNL     1      44.347  16.300  21.066  0.00  0.00    -0.405 OA
BRANCH  15  17
ATOM     17  C   UNL     1      45.697  16.213  19.175  0.00  0.00    -0.156 A 
ATOM     18  C   UNL     1      45.797  14.819  19.102  0.00  0.00    +0.064 A 
ATOM     19  C   UNL     1      46.269  14.221  17.955  0.00  0.00    +0.003 A 
ATOM     20  C   UNL     1      46.646  14.999  16.867  0.00  0.00    +0.115 A 
ATOM     23  C   UNL     1      46.548  16.389  16.931  0.00  0.00    +0.072 A 
ATOM     26  C   UNL     1      46.071  16.996  18.076  0.00  0.00    +0.079 A 
BRANCH  20  21
ATOM     21  O   UNL     1      47.109  14.404  15.738  0.00  0.00    -0.485 OA
ATOM     22  H   UNL     1      48.062  14.502  15.605  0.00  0.00    +0.394 HD
ENDBRANCH  20  21
BRANCH  23  24
ATOM     24  O   UNL     1      46.918  17.147  15.864  0.00  0.00    -0.483 OA
ATOM     25  H   UNL     1      47.616  17.788  16.061  0.00  0.00    +0.390 HD
ENDBRANCH  23  24
ENDBRANCH  15  17
ENDBRANCH  14  15
BRANCH  14  13
ATOM     13  C   UNL     1      47.157  18.031  21.352  0.00  0.00    +0.225 C 
BRANCH  13  12
ATOM     11  C   UNL     1      48.872  19.040  19.609  0.00  0.00    -0.128 C 
ATOM     12  C   UNL     1      48.111  18.592  20.382  0.00  0.00    -0.148 C 
BRANCH  11  10
ATOM      1  C   UNL     1      50.000  20.966  18.599  0.00  0.00    +0.049 A 
ATOM      2  C   UNL     1      50.895  21.490  17.689  0.00  0.00    +0.013 A 
ATOM      3  C   UNL     1      51.597  20.651  16.840  0.00  0.00    +0.092 A 
ATOM      6  C   UNL     1      51.403  19.273  16.901  0.00  0.00    +0.084 A 
ATOM      9  C   UNL     1      50.508  18.740  17.810  0.00  0.00    +0.030 A 
ATOM     10  C   UNL     1      49.800  19.586  18.665  0.00  0.00    +0.024 A 
BRANCH   3   4
ATOM      4  O   UNL     1      52.477  21.173  15.944  0.00  0.00    -0.486 OA
ATOM      5  H   UNL     1      52.226  22.045  15.609  0.00  0.00    +0.391 HD
ENDBRANCH   3   4
BRANCH   6   7
ATOM      7  O   UNL     1      52.093  18.451  16.065  0.00  0.00    -0.485 OA
ATOM      8  H   UNL     1      53.051  18.585  16.084  0.00  0.00    +0.390 HD
ENDBRANCH   6   7
ENDBRANCH  11  10
ENDBRANCH  13  12
ENDBRANCH  14  13
BRANCH  14  27
ATOM     27  O   UNL     1      44.900  18.738  21.849  0.00  0.00    -0.332 OA
BRANCH  27  28
ATOM     28  C   UNL     1      44.259  19.963  21.490  0.00  0.00    +0.290 C 
ATOM     29  C   UNL     1      43.552  19.793  20.142  0.00  0.00    +0.147 C 
ATOM     32  C   UNL     1      42.918  21.127  19.734  0.00  0.00    +0.162 C 
ATOM     35  C   UNL     1      44.006  22.204  19.689  0.00  0.00    +0.171 C 
ATOM     38  C   UNL     1      44.695  22.281  21.053  0.00  0.00    +0.190 C 
ATOM     42  O   UNL     1      45.235  21.001  21.387  0.00  0.00    -0.370 OA
BRANCH  29  30
ATOM     30  O   UNL     1      42.536  18.795  20.258  0.00  0.00    -0.553 OA
ATOM     31  H   UNL     1      41.656  19.098  19.998  0.00  0.00    +0.394 HD
ENDBRANCH  29  30
BRANCH  32  33
ATOM     33  O   UNL     1      42.318  20.996  18.444  0.00  0.00    -0.555 OA
ATOM     34  H   UNL     1      42.012  20.101  18.242  0.00  0.00    +0.395 HD
ENDBRANCH  32  33
BRANCH  35  36
ATOM     36  O   UNL     1      43.414  23.468  19.378  0.00  0.00    -0.550 OA
ATOM     37  H   UNL     1      44.041  24.204  19.372  0.00  0.00    +0.395 HD
ENDBRANCH  35  36
BRANCH  38  39
ATOM     39  C   UNL     1      45.822  23.314  20.998  0.00  0.00    +0.225 C 
BRANCH  39  40
ATOM     40  O   UNL     1      45.309  24.598  21.358  0.00  0.00    -0.566 OA
ATOM     41  H   UNL     1      45.876  25.092  21.968  0.00  0.00    +0.384 HD
ENDBRANCH  39  40
ENDBRANCH  38  39
ENDBRANCH  27  28
ENDBRANCH  14  27
TORSDOF 16
ENDMDL
MODEL 2
REMARK VINA RESULT:      -7.2      1.076      2.305
REMARK  Name = ZINC95486257
REMARK  16 active torsions:
REMARK  status: ('A' for Active; 'I' for Inactive)
REMARK    1  A    between atoms: C3_3  and  O11_39
REMARK    2  A    between atoms: C4_4  and  O10_38
REMARK    3  A    between atoms: C6_6  and  C7_7
REMARK    4  A    between atoms: C8_8  and  C9_9
REMARK    5  A    between atoms: C9_9  and  C10_10
REMARK    6  A    between atoms: C10_10  and  C11_11
REMARK    7  A    between atoms: C10_10  and  O4_21
REMARK    8  A    between atoms: C11_11  and  C12_12
REMARK    9  A    between atoms: C15_15  and  O2_19
REMARK   10  A    between atoms: C16_16  and  O1_18
REMARK   11  A    between atoms: O4_21  and  C18_22
REMARK   12  A    between atoms: C19_24  and  O9_37
REMARK   13  A    between atoms: C20_26  and  O8_36
REMARK   14  A    between atoms: C21_28  and  O7_35
REMARK   15  A    between atoms: C22_30  and  C23_33
REMARK   16  A    between atoms: C23_33  and  O6_34
REMARK                            x       y       z     vdW  Elec       q    Type
REMARK                         _______ _______ _______ _____ _____    ______ ____
ROOT
ATOM     14  C   UNL     1      45.575  17.805  20.240  0.00  0.00    +0.156 C 
ENDROOT
BRANCH  14  15
ATOM     15  C   UNL     1      45.204  16.351  20.367  0.00  0.00    +0.381 C 
ATOM     16  O   UNL     1      44.606  15.960  21.348  0.00  0.00    -0.405 OA
BRANCH  15  17
ATOM     17  C   UNL     1      45.566  15.405  19.304  0.00  0.00    -0.156 A 
ATOM     18  C   UNL     1      45.243  14.049  19.431  0.00  0.00    +0.064 A 
ATOM     19  C   UNL     1      45.583  13.164  18.433  0.00  0.00    +0.003 A 
ATOM     20  C   UNL     1      46.246  13.613  17.298  0.00  0.00    +0.115 A 
ATOM     23  C   UNL     1      46.571  14.963  17.163  0.00  0.00    +0.072 A 
ATOM     26  C   UNL     1      46.228  15.859  18.156  0.00  0.00    +0.079 A 
BRANCH  20  21
ATOM     21  O   UNL     1      46.579  12.735  16.317  0.00  0.00    -0.485 OA
ATOM     22  H   UNL     1      46.867  13.155  15.495  0.00  0.00    +0.394 HD
ENDBRANCH  20  21
BRANCH  23  24
ATOM     24  O   UNL     1      47.221  15.398  16.050  0.00  0.00    -0.483 OA
ATOM     25  H   UNL     1      47.274  16.362  15.979  0.00  0.00    +0.390 HD
ENDBRANCH  23  24
ENDBRANCH  15  17
ENDBRANCH  14  15
BRANCH  14  13
ATOM     13  C   UNL     1      46.871  18.070  21.009  0.00  0.00    +0.225 C 
BRANCH  13  12
ATOM     11  C   UNL     1      48.725  18.950  19.339  0.00  0.00    -0.128 C 
ATOM     12  C   UNL     1      47.903  18.560  20.080  0.00  0.00    -0.148 C 
BRANCH  11  10
ATOM      1  C   UNL     1      50.057  20.781  18.406  0.00  0.00    +0.049 A 
ATOM      2  C   UNL     1      51.025  21.238  17.534  0.00  0.00    +0.013 A 
ATOM      3  C   UNL     1      51.672  20.353  16.687  0.00  0.00    +0.092 A 
ATOM      6  C   UNL     1      51.349  18.998  16.710  0.00  0.00    +0.084 A 
ATOM      9  C   UNL     1      50.381  18.533  17.581  0.00  0.00    +0.030 A 
ATOM     10  C   UNL     1      49.729  19.425  18.435  0.00  0.00    +0.024 A 
BRANCH   3   4
ATOM      4  O   UNL     1      52.624  20.808  15.828  0.00  0.00    -0.486 OA
ATOM      5  H   UNL     1      53.116  20.107  15.380  0.00  0.00    +0.391 HD
ENDBRANCH   3   4
BRANCH   6   7
ATOM      7  O   UNL     1      51.985  18.132  15.876  0.00  0.00    -0.485 OA
ATOM      8  H   UNL     1      52.164  18.493  14.997  0.00  0.00    +0.390 HD
ENDBRANCH   6   7
ENDBRANCH  11  10
ENDBRANCH  13  12
ENDBRANCH  14  13
BRANCH  14  27
ATOM     27  O   UNL     1      44.527  18.614  20.781  0.00  0.00    -0.332 OA
BRANCH  27  28
ATOM     28  C   UNL     1      44.106  19.671  19.917  0.00  0.00    +0.290 C 
ATOM     29  C   UNL     1      44.178  21.003  20.668  0.00  0.00    +0.147 C 
ATOM     32  C   UNL     1      43.667  22.123  19.756  0.00  0.00    +0.162 C 
ATOM     35  C   UNL     1      42.244  21.788  19.302  0.00  0.00    +0.171 C 
ATOM     38  C   UNL     1      42.246  20.426  18.604  0.00  0.00    +0.190 C 
ATOM     42  O   UNL     1      42.761  19.435  19.495  0.00  0.00    -0.370 OA
BRANCH  29  30
ATOM     30  O   UNL     1      45.531  21.268  21.042  0.00  0.00    -0.553 OA
ATOM     31  H   UNL     1      46.187  20.837  20.477  0.00  0.00    +0.394 HD
ENDBRANCH  29  30
BRANCH  32  33
ATOM     33  O   UNL     1      43.664  23.359  20.474  0.00  0.00    -0.555 OA
ATOM     34  H   UNL     1      43.283  23.299  21.360  0.00  0.00    +0.395 HD
ENDBRANCH  32  33
BRANCH  35  36
ATOM     36  O   UNL     1      41.783  22.791  18.394  0.00  0.00    -0.550 OA
ATOM     37  H   UNL     1      42.212  22.765  17.528  0.00  0.00    +0.395 HD
ENDBRANCH  35  36
BRANCH  38  39
ATOM     39  C   UNL     1      40.818  20.057  18.199  0.00  0.00    +0.225 C 
BRANCH  39  40
ATOM     40  O   UNL     1      39.895  20.902  18.890  0.00  0.00    -0.566 OA
ATOM     41  H   UNL     1      40.037  20.943  19.846  0.00  0.00    +0.384 HD
ENDBRANCH  39  40
ENDBRANCH  38  39
ENDBRANCH  27  28
ENDBRANCH  14  27
TORSDOF 16
ENDMDL
MODEL 3
REMARK VINA RESULT:      -7.1      1.924      6.211
REMARK  Name = ZINC95486257
REMARK  16 active torsions:
REMARK  status: ('A' for Active; 'I' for Inactive)
REMARK    1  A    between atoms: C3_3  and  O11_39
REMARK    2  A    between atoms: C4_4  and  O10_38
REMARK    3  A    between atoms: C6_6  and  C7_7
REMARK    4  A    between atoms: C8_8  and  C9_9
REMARK    5  A    between atoms: C9_9  and  C10_10
REMARK    6  A    between atoms: C10_10  and  C11_11
REMARK    7  A    between atoms: C10_10  and  O4_21
REMARK    8  A    between atoms: C11_11  and  C12_12
REMARK    9  A    between atoms: C15_15  and  O2_19
REMARK   10  A    between atoms: C16_16  and  O1_18
REMARK   11  A    between atoms: O4_21  and  C18_22
REMARK   12  A    between atoms: C19_24  and  O9_37
REMARK   13  A    between atoms: C20_26  and  O8_36
REMARK   14  A    between atoms: C21_28  and  O7_35
REMARK   15  A    between atoms: C22_30  and  C23_33
REMARK   16  A    between atoms: C23_33  and  O6_34
REMARK                            x       y       z     vdW  Elec       q    Type
REMARK                         _______ _______ _______ _____ _____    ______ ____
ROOT
ATOM     14  C   UNL     1      45.067  19.218  19.682  0.00  0.00    +0.156 C 
ENDROOT
BRANCH  14  15
ATOM     15  C   UNL     1      43.884  19.658  20.505  0.00  0.00    +0.381 C 
ATOM     16  O   UNL     1      43.906  19.539  21.712  0.00  0.00    -0.405 OA
BRANCH  15  17
ATOM     17  C   UNL     1      42.704  20.232  19.846  0.00  0.00    -0.156 A 
ATOM     18  C   UNL     1      41.539  19.468  19.702  0.00  0.00    +0.064 A 
ATOM     19  C   UNL     1      40.434  20.009  19.083  0.00  0.00    +0.003 A 
ATOM     20  C   UNL     1      40.471  21.311  18.601  0.00  0.00    +0.115 A 
ATOM     23  C   UNL     1      41.627  22.078  18.741  0.00  0.00    +0.072 A 
ATOM     26  C   UNL     1      42.738  21.547  19.365  0.00  0.00    +0.079 A 
BRANCH  20  21
ATOM     21  O   UNL     1      39.378  21.838  17.992  0.00  0.00    -0.485 OA
ATOM     22  H   UNL     1      39.014  22.614  18.440  0.00  0.00    +0.394 HD
ENDBRANCH  20  21
BRANCH  23  24
ATOM     24  O   UNL     1      41.659  23.353  18.267  0.00  0.00    -0.483 OA
ATOM     25  H   UNL     1      41.971  23.425  17.353  0.00  0.00    +0.390 HD
ENDBRANCH  23  24
ENDBRANCH  15  17
ENDBRANCH  14  15
BRANCH  14  13
ATOM     13  C   UNL     1      45.494  20.355  18.754  0.00  0.00    +0.225 C 
BRANCH  13  12
ATOM     11  C   UNL     1      48.118  20.672  18.895  0.00  0.00    -0.128 C 
ATOM     12  C   UNL     1      46.954  20.531  18.832  0.00  0.00    -0.148 C 
BRANCH  11  10
ATOM      1  C   UNL     1      50.168  20.901  20.214  0.00  0.00    +0.049 A 
ATOM      2  C   UNL     1      51.537  21.067  20.286  0.00  0.00    +0.013 A 
ATOM      3  C   UNL     1      52.287  21.176  19.126  0.00  0.00    +0.092 A 
ATOM      6  C   UNL     1      51.663  21.119  17.882  0.00  0.00    +0.084 A 
ATOM      9  C   UNL     1      50.292  20.953  17.802  0.00  0.00    +0.030 A 
ATOM     10  C   UNL     1      49.537  20.844  18.971  0.00  0.00    +0.024 A 
BRANCH   3   4
ATOM      4  O   UNL     1      53.635  21.340  19.202  0.00  0.00    -0.486 OA
ATOM      5  H   UNL     1      53.945  22.196  18.875  0.00  0.00    +0.391 HD
ENDBRANCH   3   4
BRANCH   6   7
ATOM      7  O   UNL     1      52.401  21.227  16.745  0.00  0.00    -0.485 OA
ATOM      8  H   UNL     1      52.186  22.002  16.208  0.00  0.00    +0.390 HD
ENDBRANCH   6   7
ENDBRANCH  11  10
ENDBRANCH  13  12
ENDBRANCH  14  13
BRANCH  14  27
ATOM     27  O   UNL     1      44.706  18.076  18.902  0.00  0.00    -0.332 OA
BRANCH  27  28
ATOM     28  C   UNL     1      45.671  17.023  18.932  0.00  0.00    +0.290 C 
ATOM     29  C   UNL     1      46.073  16.657  17.501  0.00  0.00    +0.147 C 
ATOM     32  C   UNL     1      47.062  15.488  17.539  0.00  0.00    +0.162 C 
ATOM     35  C   UNL     1      46.418  14.313  18.281  0.00  0.00    +0.171 C 
ATOM     38  C   UNL     1      46.003  14.769  19.682  0.00  0.00    +0.190 C 
ATOM     42  O   UNL     1      45.109  15.879  19.576  0.00  0.00    -0.370 OA
BRANCH  29  30
ATOM     30  O   UNL     1      46.687  17.785  16.874  0.00  0.00    -0.553 OA
ATOM     31  H   UNL     1      47.611  17.920  17.125  0.00  0.00    +0.394 HD
ENDBRANCH  29  30
BRANCH  32  33
ATOM     33  O   UNL     1      47.387  15.093  16.204  0.00  0.00    -0.555 OA
ATOM     34  H   UNL     1      48.088  15.620  15.798  0.00  0.00    +0.395 HD
ENDBRANCH  32  33
BRANCH  35  36
ATOM     36  O   UNL     1      47.358  13.241  18.384  0.00  0.00    -0.550 OA
ATOM     37  H   UNL     1      47.565  12.986  19.294  0.00  0.00    +0.395 HD
ENDBRANCH  35  36
BRANCH  38  39
ATOM     39  C   UNL     1      45.306  13.617  20.408  0.00  0.00    +0.225 C 
BRANCH  39  40
ATOM     40  O   UNL     1      44.427  12.947  19.503  0.00  0.00    -0.566 OA
ATOM     41  H   UNL     1      44.617  13.118  18.570  0.00  0.00    +0.384 HD
ENDBRANCH  39  40
ENDBRANCH  38  39
ENDBRANCH  27  28
ENDBRANCH  14  27
TORSDOF 16
ENDMDL
MODEL 4
REMARK VINA RESULT:      -6.7      1.448      6.219
REMARK  Name = ZINC95486257
REMARK  16 active torsions:
REMARK  status: ('A' for Active; 'I' for Inactive)
REMARK    1  A    between atoms: C3_3  and  O11_39
REMARK    2  A    between atoms: C4_4  and  O10_38
REMARK    3  A    between atoms: C6_6  and  C7_7
REMARK    4  A    between atoms: C8_8  and  C9_9
REMARK    5  A    between atoms: C9_9  and  C10_10
REMARK    6  A    between atoms: C10_10  and  C11_11
REMARK    7  A    between atoms: C10_10  and  O4_21
REMARK    8  A    between atoms: C11_11  and  C12_12
REMARK    9  A    between atoms: C15_15  and  O2_19
REMARK   10  A    between atoms: C16_16  and  O1_18
REMARK   11  A    between atoms: O4_21  and  C18_22
REMARK   12  A    between atoms: C19_24  and  O9_37
REMARK   13  A    between atoms: C20_26  and  O8_36
REMARK   14  A    between atoms: C21_28  and  O7_35
REMARK   15  A    between atoms: C22_30  and  C23_33
REMARK   16  A    between atoms: C23_33  and  O6_34
REMARK                            x       y       z     vdW  Elec       q    Type
REMARK                         _______ _______ _______ _____ _____    ______ ____
ROOT
ATOM     14  C   UNL     1      46.027  17.883  20.376  0.00  0.00    +0.156 C 
ENDROOT
BRANCH  14  15
ATOM     15  C   UNL     1      44.759  18.682  20.532  0.00  0.00    +0.381 C 
ATOM     16  O   UNL     1      43.720  18.124  20.814  0.00  0.00    -0.405 OA
BRANCH  15  17
ATOM     17  C   UNL     1      44.781  20.138  20.342  0.00  0.00    -0.156 A 
ATOM     18  C   UNL     1      45.119  20.678  19.095  0.00  0.00    +0.064 A 
ATOM     19  C   UNL     1      45.139  22.044  18.919  0.00  0.00    +0.003 A 
ATOM     20  C   UNL     1      44.825  22.888  19.976  0.00  0.00    +0.115 A 
ATOM     23  C   UNL     1      44.487  22.358  21.221  0.00  0.00    +0.072 A 
ATOM     26  C   UNL     1      44.458  20.990  21.405  0.00  0.00    +0.079 A 
BRANCH  20  21
ATOM     21  O   UNL     1      44.846  24.234  19.797  0.00  0.00    -0.485 OA
ATOM     22  H   UNL     1      45.717  24.587  19.567  0.00  0.00    +0.394 HD
ENDBRANCH  20  21
BRANCH  23  24
ATOM     24  O   UNL     1      44.181  23.189  22.254  0.00  0.00    -0.483 OA
ATOM     25  H   UNL     1      44.131  22.746  23.113  0.00  0.00    +0.390 HD
ENDBRANCH  23  24
ENDBRANCH  15  17
ENDBRANCH  14  15
BRANCH  14  13
ATOM     13  C   UNL     1      47.182  18.620  21.056  0.00  0.00    +0.225 C 
BRANCH  13  12
ATOM     11  C   UNL     1      48.994  19.281  19.244  0.00  0.00    -0.128 C 
ATOM     12  C   UNL     1      48.190  18.988  20.048  0.00  0.00    -0.148 C 
BRANCH  11  10
ATOM      1  C   UNL     1      50.335  20.975  18.092  0.00  0.00    +0.049 A 
ATOM      2  C   UNL     1      51.281  21.318  17.146  0.00  0.00    +0.013 A 
ATOM      3  C   UNL     1      51.874  20.338  16.368  0.00  0.00    +0.092 A 
ATOM      6  C   UNL     1      51.519  19.001  16.535  0.00  0.00    +0.084 A 
ATOM      9  C   UNL     1      50.573  18.650  17.480  0.00  0.00    +0.030 A 
ATOM     10  C   UNL     1      49.975  19.639  18.264  0.00  0.00    +0.024 A 
BRANCH   3   4
ATOM      4  O   UNL     1      52.804  20.681  15.436  0.00  0.00    -0.486 OA
ATOM      5  H   UNL     1      53.465  21.311  15.755  0.00  0.00    +0.391 HD
ENDBRANCH   3   4
BRANCH   6   7
ATOM      7  O   UNL     1      52.102  18.041  15.768  0.00  0.00    -0.485 OA
ATOM      8  H   UNL     1      51.473  17.460  15.319  0.00  0.00    +0.390 HD
ENDBRANCH   6   7
ENDBRANCH  11  10
ENDBRANCH  13  12
ENDBRANCH  14  13
BRANCH  14  27
ATOM     27  O   UNL     1      46.319  17.718  18.987  0.00  0.00    -0.332 OA
BRANCH  27  28
ATOM     28  C   UNL     1      46.685  16.385  18.625  0.00  0.00    +0.290 C 
ATOM     29  C   UNL     1      46.610  16.231  17.103  0.00  0.00    +0.147 C 
ATOM     32  C   UNL     1      46.944  14.783  16.727  0.00  0.00    +0.162 C 
ATOM     35  C   UNL     1      45.980  13.843  17.455  0.00  0.00    +0.171 C 
ATOM     38  C   UNL     1      46.079  14.089  18.963  0.00  0.00    +0.190 C 
ATOM     42  O   UNL     1      45.787  15.460  19.241  0.00  0.00    -0.370 OA
BRANCH  29  30
ATOM     30  O   UNL     1      47.548  17.115  16.487  0.00  0.00    -0.553 OA
ATOM     31  H   UNL     1      48.017  16.730  15.735  0.00  0.00    +0.394 HD
ENDBRANCH  29  30
BRANCH  32  33
ATOM     33  O   UNL     1      46.808  14.613  15.315  0.00  0.00    -0.555 OA
ATOM     34  H   UNL     1      46.710  15.441  14.827  0.00  0.00    +0.395 HD
ENDBRANCH  32  33
BRANCH  35  36
ATOM     36  O   UNL     1      46.328  12.486  17.168  0.00  0.00    -0.550 OA
ATOM     37  H   UNL     1      45.783  12.078  16.481  0.00  0.00    +0.395 HD
ENDBRANCH  35  36
BRANCH  38  39
ATOM     39  C   UNL     1      45.075  13.194  19.693  0.00  0.00    +0.225 C 
BRANCH  39  40
ATOM     40  O   UNL     1      44.049  12.790  18.784  0.00  0.00    -0.566 OA
ATOM     41  H   UNL     1      43.198  13.225  18.933  0.00  0.00    +0.384 HD
ENDBRANCH  39  40
ENDBRANCH  38  39
ENDBRANCH  27  28
ENDBRANCH  14  27
TORSDOF 16
ENDMDL
MODEL 5
REMARK VINA RESULT:      -6.7      2.016      5.969
REMARK  Name = ZINC95486257
REMARK  16 active torsions:
REMARK  status: ('A' for Active; 'I' for Inactive)
REMARK    1  A    between atoms: C3_3  and  O11_39
REMARK    2  A    between atoms: C4_4  and  O10_38
REMARK    3  A    between atoms: C6_6  and  C7_7
REMARK    4  A    between atoms: C8_8  and  C9_9
REMARK    5  A    between atoms: C9_9  and  C10_10
REMARK    6  A    between atoms: C10_10  and  C11_11
REMARK    7  A    between atoms: C10_10  and  O4_21
REMARK    8  A    between atoms: C11_11  and  C12_12
REMARK    9  A    between atoms: C15_15  and  O2_19
REMARK   10  A    between atoms: C16_16  and  O1_18
REMARK   11  A    between atoms: O4_21  and  C18_22
REMARK   12  A    between atoms: C19_24  and  O9_37
REMARK   13  A    between atoms: C20_26  and  O8_36
REMARK   14  A    between atoms: C21_28  and  O7_35
REMARK   15  A    between atoms: C22_30  and  C23_33
REMARK   16  A    between atoms: C23_33  and  O6_34
REMARK                            x       y       z     vdW  Elec       q    Type
REMARK                         _______ _______ _______ _____ _____    ______ ____
ROOT
ATOM     14  C   UNL     1      44.920  18.995  20.082  0.00  0.00    +0.156 C 
ENDROOT
BRANCH  14  15
ATOM     15  C   UNL     1      43.978  19.965  20.746  0.00  0.00    +0.381 C 
ATOM     16  O   UNL     1      44.179  20.321  21.888  0.00  0.00    -0.405 OA
BRANCH  15  17
ATOM     17  C   UNL     1      42.816  20.481  20.011  0.00  0.00    -0.156 A 
ATOM     18  C   UNL     1      41.661  19.700  19.887  0.00  0.00    +0.064 A 
ATOM     19  C   UNL     1      40.573  20.185  19.197  0.00  0.00    +0.003 A 
ATOM     20  C   UNL     1      40.617  21.449  18.623  0.00  0.00    +0.115 A 
ATOM     23  C   UNL     1      41.764  22.234  18.743  0.00  0.00    +0.072 A 
ATOM     26  C   UNL     1      42.858  21.758  19.438  0.00  0.00    +0.079 A 
BRANCH  20  21
ATOM     21  O   UNL     1      39.541  21.923  17.944  0.00  0.00    -0.485 OA
ATOM     22  H   UNL     1      38.691  21.676  18.333  0.00  0.00    +0.394 HD
ENDBRANCH  20  21
BRANCH  23  24
ATOM     24  O   UNL     1      41.804  23.471  18.179  0.00  0.00    -0.483 OA
ATOM     25  H   UNL     1      42.646  23.932  18.301  0.00  0.00    +0.390 HD
ENDBRANCH  23  24
ENDBRANCH  15  17
ENDBRANCH  14  15
BRANCH  14  13
ATOM     13  C   UNL     1      45.408  19.584  18.757  0.00  0.00    +0.225 C 
BRANCH  13  12
ATOM     11  C   UNL     1      47.964  20.237  18.968  0.00  0.00    -0.128 C 
ATOM     12  C   UNL     1      46.830  19.947  18.875  0.00  0.00    -0.148 C 
BRANCH  11  10
ATOM      1  C   UNL     1      49.925  20.749  20.342  0.00  0.00    +0.049 A 
ATOM      2  C   UNL     1      51.259  21.090  20.450  0.00  0.00    +0.013 A 
ATOM      3  C   UNL     1      52.025  21.274  19.311  0.00  0.00    +0.092 A 
ATOM      6  C   UNL     1      51.453  21.116  18.050  0.00  0.00    +0.084 A 
ATOM      9  C   UNL     1      50.118  20.775  17.934  0.00  0.00    +0.030 A 
ATOM     10  C   UNL     1      49.347  20.590  19.083  0.00  0.00    +0.024 A 
BRANCH   3   4
ATOM      4  O   UNL     1      53.338  21.611  19.422  0.00  0.00    -0.486 OA
ATOM      5  H   UNL     1      53.935  20.852  19.477  0.00  0.00    +0.391 HD
ENDBRANCH   3   4
BRANCH   6   7
ATOM      7  O   UNL     1      52.207  21.298  16.933  0.00  0.00    -0.485 OA
ATOM      8  H   UNL     1      51.692  21.368  16.117  0.00  0.00    +0.390 HD
ENDBRANCH   6   7
ENDBRANCH  11  10
ENDBRANCH  13  12
ENDBRANCH  14  13
BRANCH  14  27
ATOM     27  O   UNL     1      44.239  17.763  19.833  0.00  0.00    -0.332 OA
BRANCH  27  28
ATOM     28  C   UNL     1      45.102  16.627  19.764  0.00  0.00    +0.290 C 
ATOM     29  C   UNL     1      46.205  16.759  20.817  0.00  0.00    +0.147 C 
ATOM     32  C   UNL     1      47.162  15.568  20.696  0.00  0.00    +0.162 C 
ATOM     35  C   UNL     1      47.720  15.518  19.271  0.00  0.00    +0.171 C 
ATOM     38  C   UNL     1      46.559  15.434  18.278  0.00  0.00    +0.190 C 
ATOM     42  O   UNL     1      45.691  16.554  18.464  0.00  0.00    -0.370 OA
BRANCH  29  30
ATOM     30  O   UNL     1      45.622  16.775  22.121  0.00  0.00    -0.553 OA
ATOM     31  H   UNL     1      45.725  15.947  22.609  0.00  0.00    +0.394 HD
ENDBRANCH  29  30
BRANCH  32  33
ATOM     33  O   UNL     1      48.234  15.720  21.628  0.00  0.00    -0.555 OA
ATOM     34  H   UNL     1      48.248  15.050  22.325  0.00  0.00    +0.395 HD
ENDBRANCH  32  33
BRANCH  35  36
ATOM     36  O   UNL     1      48.559  14.369  19.127  0.00  0.00    -0.550 OA
ATOM     37  H   UNL     1      48.092  13.575  18.833  0.00  0.00    +0.395 HD
ENDBRANCH  35  36
BRANCH  38  39
ATOM     39  C   UNL     1      47.107  15.443  16.850  0.00  0.00    +0.225 C 
BRANCH  39  40
ATOM     40  O   UNL     1      46.525  16.528  16.124  0.00  0.00    -0.566 OA
ATOM     41  H   UNL     1      45.724  16.291  15.637  0.00  0.00    +0.384 HD
ENDBRANCH  39  40
ENDBRANCH  38  39
ENDBRANCH  27  28
ENDBRANCH  14  27
TORSDOF 16
ENDMDL
MODEL 6
REMARK VINA RESULT:      -6.6      1.660      5.660
REMARK  Name = ZINC95486257
REMARK  16 active torsions:
REMARK  status: ('A' for Active; 'I' for Inactive)
REMARK    1  A    between atoms: C3_3  and  O11_39
REMARK    2  A    between atoms: C4_4  and  O10_38
REMARK    3  A    between atoms: C6_6  and  C7_7
REMARK    4  A    between atoms: C8_8  and  C9_9
REMARK    5  A    between atoms: C9_9  and  C10_10
REMARK    6  A    between atoms: C10_10  and  C11_11
REMARK    7  A    between atoms: C10_10  and  O4_21
REMARK    8  A    between atoms: C11_11  and  C12_12
REMARK    9  A    between atoms: C15_15  and  O2_19
REMARK   10  A    between atoms: C16_16  and  O1_18
REMARK   11  A    between atoms: O4_21  and  C18_22
REMARK   12  A    between atoms: C19_24  and  O9_37
REMARK   13  A    between atoms: C20_26  and  O8_36
REMARK   14  A    between atoms: C21_28  and  O7_35
REMARK   15  A    between atoms: C22_30  and  C23_33
REMARK   16  A    between atoms: C23_33  and  O6_34
REMARK                            x       y       z     vdW  Elec       q    Type
REMARK                         _______ _______ _______ _____ _____    ______ ____
ROOT
ATOM     14  C   UNL     1      48.374  19.047  20.386  0.00  0.00    +0.156 C 
ENDROOT
BRANCH  14  15
ATOM     15  C   UNL     1      49.693  18.563  19.843  0.00  0.00    +0.381 C 
ATOM     16  O   UNL     1      50.198  17.553  20.287  0.00  0.00    -0.405 OA
BRANCH  15  17
ATOM     17  C   UNL     1      50.368  19.312  18.777  0.00  0.00    -0.156 A 
ATOM     18  C   UNL     1      50.369  20.712  18.795  0.00  0.00    +0.064 A 
ATOM     19  C   UNL     1      51.003  21.413  17.793  0.00  0.00    +0.003 A 
ATOM     20  C   UNL     1      51.642  20.735  16.763  0.00  0.00    +0.115 A 
ATOM     23  C   UNL     1      51.647  19.340  16.739  0.00  0.00    +0.072 A 
ATOM     26  C   UNL     1      51.019  18.629  17.742  0.00  0.00    +0.079 A 
BRANCH  20  21
ATOM     21  O   UNL     1      52.266  21.431  15.779  0.00  0.00    -0.485 OA
ATOM     22  H   UNL     1      52.525  22.327  16.034  0.00  0.00    +0.394 HD
ENDBRANCH  20  21
BRANCH  23  24
ATOM     24  O   UNL     1      52.274  18.679  15.728  0.00  0.00    -0.483 OA
ATOM     25  H   UNL     1      51.713  18.521  14.956  0.00  0.00    +0.390 HD
ENDBRANCH  23  24
ENDBRANCH  15  17
ENDBRANCH  14  15
BRANCH  14  13
ATOM     13  C   UNL     1      47.721  17.935  21.210  0.00  0.00    +0.225 C 
BRANCH  13  12
ATOM     11  C   UNL     1      46.987  15.962  19.606  0.00  0.00    -0.128 C 
ATOM     12  C   UNL     1      47.313  16.838  20.317  0.00  0.00    -0.148 C 
BRANCH  11  10
ATOM      1  C   UNL     1      45.707  13.915  19.195  0.00  0.00    +0.049 A 
ATOM      2  C   UNL     1      45.326  12.887  18.357  0.00  0.00    +0.013 A 
ATOM      3  C   UNL     1      45.816  12.824  17.063  0.00  0.00    +0.092 A 
ATOM      6  C   UNL     1      46.698  13.799  16.601  0.00  0.00    +0.084 A 
ATOM      9  C   UNL     1      47.085  14.832  17.435  0.00  0.00    +0.030 A 
ATOM     10  C   UNL     1      46.590  14.895  18.739  0.00  0.00    +0.024 A 
BRANCH   3   4
ATOM      4  O   UNL     1      45.439  11.808  16.241  0.00  0.00    -0.486 OA
ATOM      5  H   UNL     1      45.166  12.097  15.360  0.00  0.00    +0.391 HD
ENDBRANCH   3   4
BRANCH   6   7
ATOM      7  O   UNL     1      47.180  13.735  15.331  0.00  0.00    -0.485 OA
ATOM      8  H   UNL     1      46.974  12.907  14.874  0.00  0.00    +0.390 HD
ENDBRANCH   6   7
ENDBRANCH  11  10
ENDBRANCH  13  12
ENDBRANCH  14  13
BRANCH  14  27
ATOM     27  O   UNL     1      47.513  19.402  19.301  0.00  0.00    -0.332 OA
BRANCH  27  28
ATOM     28  C   UNL     1      46.209  19.820  19.707  0.00  0.00    +0.290 C 
ATOM     29  C   UNL     1      45.249  19.727  18.518  0.00  0.00    +0.147 C 
ATOM     32  C   UNL     1      43.868  20.234  18.945  0.00  0.00    +0.162 C 
ATOM     35  C   UNL     1      44.002  21.665  19.473  0.00  0.00    +0.171 C 
ATOM     38  C   UNL     1      45.009  21.683  20.625  0.00  0.00    +0.190 C 
ATOM     42  O   UNL     1      46.263  21.171  20.169  0.00  0.00    -0.370 OA
BRANCH  29  30
ATOM     30  O   UNL     1      45.150  18.367  18.090  0.00  0.00    -0.553 OA
ATOM     31  H   UNL     1      45.486  17.727  18.732  0.00  0.00    +0.394 HD
ENDBRANCH  29  30
BRANCH  32  33
ATOM     33  O   UNL     1      42.985  20.216  17.821  0.00  0.00    -0.555 OA
ATOM     34  H   UNL     1      43.402  20.477  16.989  0.00  0.00    +0.395 HD
ENDBRANCH  32  33
BRANCH  35  36
ATOM     36  O   UNL     1      42.731  22.123  19.940  0.00  0.00    -0.550 OA
ATOM     37  H   UNL     1      42.069  22.224  19.243  0.00  0.00    +0.395 HD
ENDBRANCH  35  36
BRANCH  38  39
ATOM     39  C   UNL     1      45.193  23.120  21.119  0.00  0.00    +0.225 C 
BRANCH  39  40
ATOM     40  O   UNL     1      44.176  23.427  22.075  0.00  0.00    -0.566 OA
ATOM     41  H   UNL     1      44.453  23.310  22.995  0.00  0.00    +0.384 HD
ENDBRANCH  39  40
ENDBRANCH  38  39
ENDBRANCH  27  28
ENDBRANCH  14  27
TORSDOF 16
ENDMDL
MODEL 7
REMARK VINA RESULT:      -6.6      1.778      5.749
REMARK  Name = ZINC95486257
REMARK  16 active torsions:
REMARK  status: ('A' for Active; 'I' for Inactive)
REMARK    1  A    between atoms: C3_3  and  O11_39
REMARK    2  A    between atoms: C4_4  and  O10_38
REMARK    3  A    between atoms: C6_6  and  C7_7
REMARK    4  A    between atoms: C8_8  and  C9_9
REMARK    5  A    between atoms: C9_9  and  C10_10
REMARK    6  A    between atoms: C10_10  and  C11_11
REMARK    7  A    between atoms: C10_10  and  O4_21
REMARK    8  A    between atoms: C11_11  and  C12_12
REMARK    9  A    between atoms: C15_15  and  O2_19
REMARK   10  A    between atoms: C16_16  and  O1_18
REMARK   11  A    between atoms: O4_21  and  C18_22
REMARK   12  A    between atoms: C19_24  and  O9_37
REMARK   13  A    between atoms: C20_26  and  O8_36
REMARK   14  A    between atoms: C21_28  and  O7_35
REMARK   15  A    between atoms: C22_30  and  C23_33
REMARK   16  A    between atoms: C23_33  and  O6_34
REMARK                            x       y       z     vdW  Elec       q    Type
REMARK                         _______ _______ _______ _____ _____    ______ ____
ROOT
ATOM     14  C   UNL     1      46.714  19.765  20.030  0.00  0.00    +0.156 C 
ENDROOT
BRANCH  14  15
ATOM     15  C   UNL     1      47.983  20.571  20.130  0.00  0.00    +0.381 C 
ATOM     16  O   UNL     1      48.000  21.599  20.774  0.00  0.00    -0.405 OA
BRANCH  15  17
ATOM     17  C   UNL     1      49.199  20.113  19.447  0.00  0.00    -0.156 A 
ATOM     18  C   UNL     1      49.691  18.822  19.679  0.00  0.00    +0.064 A 
ATOM     19  C   UNL     1      50.832  18.395  19.038  0.00  0.00    +0.003 A 
ATOM     20  C   UNL     1      51.498  19.241  18.160  0.00  0.00    +0.115 A 
ATOM     23  C   UNL     1      51.015  20.528  17.923  0.00  0.00    +0.072 A 
ATOM     26  C   UNL     1      49.867  20.963  18.557  0.00  0.00    +0.079 A 
BRANCH  20  21
ATOM     21  O   UNL     1      52.623  18.814  17.531  0.00  0.00    -0.485 OA
ATOM     22  H   UNL     1      52.916  19.392  16.814  0.00  0.00    +0.394 HD
ENDBRANCH  20  21
BRANCH  23  24
ATOM     24  O   UNL     1      51.670  21.353  17.063  0.00  0.00    -0.483 OA
ATOM     25  H   UNL     1      51.674  21.042  16.147  0.00  0.00    +0.390 HD
ENDBRANCH  23  24
ENDBRANCH  15  17
ENDBRANCH  14  15
BRANCH  14  13
ATOM     13  C   UNL     1      46.391  19.501  18.558  0.00  0.00    +0.225 C 
BRANCH  13  12
ATOM     11  C   UNL     1      46.351  16.892  18.117  0.00  0.00    -0.128 C 
ATOM     12  C   UNL     1      46.369  18.050  18.312  0.00  0.00    -0.148 C 
BRANCH  11  10
ATOM      1  C   UNL     1      45.793  14.618  18.834  0.00  0.00    +0.049 A 
ATOM      2  C   UNL     1      45.773  13.258  18.603  0.00  0.00    +0.013 A 
ATOM      3  C   UNL     1      46.284  12.745  17.421  0.00  0.00    +0.092 A 
ATOM      6  C   UNL     1      46.822  13.601  16.462  0.00  0.00    +0.084 A 
ATOM      9  C   UNL     1      46.845  14.965  16.687  0.00  0.00    +0.030 A 
ATOM     10  C   UNL     1      46.329  15.481  17.878  0.00  0.00    +0.024 A 
BRANCH   3   4
ATOM      4  O   UNL     1      46.264  11.404  17.198  0.00  0.00    -0.486 OA
ATOM      5  H   UNL     1      45.674  11.134  16.480  0.00  0.00    +0.391 HD
ENDBRANCH   3   4
BRANCH   6   7
ATOM      7  O   UNL     1      47.324  13.095  15.304  0.00  0.00    -0.485 OA
ATOM      8  H   UNL     1      47.493  13.762  14.623  0.00  0.00    +0.390 HD
ENDBRANCH   6   7
ENDBRANCH  11  10
ENDBRANCH  13  12
ENDBRANCH  14  13
BRANCH  14  27
ATOM     27  O   UNL     1      45.639  20.492  20.630  0.00  0.00    -0.332 OA
BRANCH  27  28
ATOM     28  C   UNL     1      44.397  20.370  19.934  0.00  0.00    +0.290 C 
ATOM     29  C   UNL     1      43.822  21.764  19.667  0.00  0.00    +0.147 C 
ATOM     32  C   UNL     1      42.462  21.623  18.976  0.00  0.00    +0.162 C 
ATOM     35  C   UNL     1      41.541  20.774  19.855  0.00  0.00    +0.171 C 
ATOM     38  C   UNL     1      42.203  19.419  20.116  0.00  0.00    +0.190 C 
ATOM     42  O   UNL     1      43.477  19.622  20.731  0.00  0.00    -0.370 OA
BRANCH  29  30
ATOM     30  O   UNL     1      44.715  22.494  18.824  0.00  0.00    -0.553 OA
ATOM     31  H   UNL     1      44.444  23.408  18.661  0.00  0.00    +0.394 HD
ENDBRANCH  29  30
BRANCH  32  33
ATOM     33  O   UNL     1      41.887  22.918  18.787  0.00  0.00    -0.555 OA
ATOM     34  H   UNL     1      41.868  23.460  19.586  0.00  0.00    +0.395 HD
ENDBRANCH  32  33
BRANCH  35  36
ATOM     36  O   UNL     1      40.292  20.577  19.188  0.00  0.00    -0.550 OA
ATOM     37  H   UNL     1      39.518  20.719  19.750  0.00  0.00    +0.395 HD
ENDBRANCH  35  36
BRANCH  38  39
ATOM     39  C   UNL     1      41.314  18.586  21.042  0.00  0.00    +0.225 C 
BRANCH  39  40
ATOM     40  O   UNL     1      40.522  19.458  21.851  0.00  0.00    -0.566 OA
ATOM     41  H   UNL     1      40.125  19.027  22.621  0.00  0.00    +0.384 HD
ENDBRANCH  39  40
ENDBRANCH  38  39
ENDBRANCH  27  28
ENDBRANCH  14  27
TORSDOF 16
ENDMDL
MODEL 8
REMARK VINA RESULT:      -6.6      1.846      7.721
REMARK  Name = ZINC95486257
REMARK  16 active torsions:
REMARK  status: ('A' for Active; 'I' for Inactive)
REMARK    1  A    between atoms: C3_3  and  O11_39
REMARK    2  A    between atoms: C4_4  and  O10_38
REMARK    3  A    between atoms: C6_6  and  C7_7
REMARK    4  A    between atoms: C8_8  and  C9_9
REMARK    5  A    between atoms: C9_9  and  C10_10
REMARK    6  A    between atoms: C10_10  and  C11_11
REMARK    7  A    between atoms: C10_10  and  O4_21
REMARK    8  A    between atoms: C11_11  and  C12_12
REMARK    9  A    between atoms: C15_15  and  O2_19
REMARK   10  A    between atoms: C16_16  and  O1_18
REMARK   11  A    between atoms: O4_21  and  C18_22
REMARK   12  A    between atoms: C19_24  and  O9_37
REMARK   13  A    between atoms: C20_26  and  O8_36
REMARK   14  A    between atoms: C21_28  and  O7_35
REMARK   15  A    between atoms: C22_30  and  C23_33
REMARK   16  A    between atoms: C23_33  and  O6_34
REMARK                            x       y       z     vdW  Elec       q    Type
REMARK                         _______ _______ _______ _____ _____    ______ ____
ROOT
ATOM     14  C   UNL     1      48.726  17.474  19.530  0.00  0.00    +0.156 C 
ENDROOT
BRANCH  14  15
ATOM     15  C   UNL     1      50.193  17.804  19.431  0.00  0.00    +0.381 C 
ATOM     16  O   UNL     1      50.996  17.210  20.119  0.00  0.00    -0.405 OA
BRANCH  15  17
ATOM     17  C   UNL     1      50.651  18.845  18.503  0.00  0.00    -0.156 A 
ATOM     18  C   UNL     1      50.337  20.188  18.744  0.00  0.00    +0.064 A 
ATOM     19  C   UNL     1      50.768  21.163  17.871  0.00  0.00    +0.003 A 
ATOM     20  C   UNL     1      51.514  20.817  16.752  0.00  0.00    +0.115 A 
ATOM     23  C   UNL     1      51.831  19.482  16.505  0.00  0.00    +0.072 A 
ATOM     26  C   UNL     1      51.409  18.498  17.378  0.00  0.00    +0.079 A 
BRANCH  20  21
ATOM     21  O   UNL     1      51.936  21.783  15.895  0.00  0.00    -0.485 OA
ATOM     22  H   UNL     1      52.880  21.742  15.692  0.00  0.00    +0.394 HD
ENDBRANCH  20  21
BRANCH  23  24
ATOM     24  O   UNL     1      52.562  19.147  15.407  0.00  0.00    -0.483 OA
ATOM     25  H   UNL     1      53.233  18.470  15.574  0.00  0.00    +0.390 HD
ENDBRANCH  23  24
ENDBRANCH  15  17
ENDBRANCH  14  15
BRANCH  14  13
ATOM     13  C   UNL     1      48.134  18.148  20.769  0.00  0.00    +0.225 C 
BRANCH  13  12
ATOM     11  C   UNL     1      45.948  19.477  20.092  0.00  0.00    -0.128 C 
ATOM     12  C   UNL     1      46.918  18.887  20.393  0.00  0.00    -0.148 C 
BRANCH  11  10
ATOM      1  C   UNL     1      43.761  19.563  18.994  0.00  0.00    +0.049 A 
ATOM      2  C   UNL     1      42.621  20.258  18.642  0.00  0.00    +0.013 A 
ATOM      3  C   UNL     1      42.472  21.584  19.014  0.00  0.00    +0.092 A 
ATOM      6  C   UNL     1      43.471  22.222  19.745  0.00  0.00    +0.084 A 
ATOM      9  C   UNL     1      44.615  21.533  20.101  0.00  0.00    +0.030 A 
ATOM     10  C   UNL     1      44.765  20.196  19.726  0.00  0.00    +0.024 A 
BRANCH   3   4
ATOM      4  O   UNL     1      41.348  22.265  18.664  0.00  0.00    -0.486 OA
ATOM      5  H   UNL     1      40.526  21.809  18.889  0.00  0.00    +0.391 HD
ENDBRANCH   3   4
BRANCH   6   7
ATOM      7  O   UNL     1      43.322  23.525  20.108  0.00  0.00    -0.485 OA
ATOM      8  H   UNL     1      43.878  24.139  19.608  0.00  0.00    +0.390 HD
ENDBRANCH   6   7
ENDBRANCH  11  10
ENDBRANCH  13  12
ENDBRANCH  14  13
BRANCH  14  27
ATOM     27  O   UNL     1      48.562  16.058  19.633  0.00  0.00    -0.332 OA
BRANCH  27  28
ATOM     28  C   UNL     1      47.599  15.518  18.726  0.00  0.00    +0.290 C 
ATOM     29  C   UNL     1      46.615  14.631  19.495  0.00  0.00    +0.147 C 
ATOM     32  C   UNL     1      45.623  14.007  18.508  0.00  0.00    +0.162 C 
ATOM     35  C   UNL     1      46.401  13.227  17.444  0.00  0.00    +0.171 C 
ATOM     38  C   UNL     1      47.392  14.168  16.755  0.00  0.00    +0.190 C 
ATOM     42  O   UNL     1      48.265  14.738  17.732  0.00  0.00    -0.370 OA
BRANCH  29  30
ATOM     30  O   UNL     1      45.907  15.421  20.452  0.00  0.00    -0.553 OA
ATOM     31  H   UNL     1      45.296  14.916  21.004  0.00  0.00    +0.394 HD
ENDBRANCH  29  30
BRANCH  32  33
ATOM     33  O   UNL     1      44.746  13.122  19.208  0.00  0.00    -0.555 OA
ATOM     34  H   UNL     1      44.097  13.571  19.765  0.00  0.00    +0.395 HD
ENDBRANCH  32  33
BRANCH  35  36
ATOM     36  O   UNL     1      45.489  12.700  16.477  0.00  0.00    -0.550 OA
ATOM     37  H   UNL     1      45.297  13.303  15.747  0.00  0.00    +0.395 HD
ENDBRANCH  35  36
BRANCH  38  39
ATOM     39  C   UNL     1      48.214  13.382  15.731  0.00  0.00    +0.225 C 
BRANCH  39  40
ATOM     40  O   UNL     1      47.545  13.404  14.468  0.00  0.00    -0.566 OA
ATOM     41  H   UNL     1      46.629  13.711  14.513  0.00  0.00    +0.384 HD
ENDBRANCH  39  40
ENDBRANCH  38  39
ENDBRANCH  27  28
ENDBRANCH  14  27
TORSDOF 16
ENDMDL
MODEL 9
REMARK VINA RESULT:      -6.5      2.638      8.465
REMARK  Name = ZINC95486257
REMARK  16 active torsions:
REMARK  status: ('A' for Active; 'I' for Inactive)
REMARK    1  A    between atoms: C3_3  and  O11_39
REMARK    2  A    between atoms: C4_4  and  O10_38
REMARK    3  A    between atoms: C6_6  and  C7_7
REMARK    4  A    between atoms: C8_8  and  C9_9
REMARK    5  A    between atoms: C9_9  and  C10_10
REMARK    6  A    between atoms: C10_10  and  C11_11
REMARK    7  A    between atoms: C10_10  and  O4_21
REMARK    8  A    between atoms: C11_11  and  C12_12
REMARK    9  A    between atoms: C15_15  and  O2_19
REMARK   10  A    between atoms: C16_16  and  O1_18
REMARK   11  A    between atoms: O4_21  and  C18_22
REMARK   12  A    between atoms: C19_24  and  O9_37
REMARK   13  A    between atoms: C20_26  and  O8_36
REMARK   14  A    between atoms: C21_28  and  O7_35
REMARK   15  A    between atoms: C22_30  and  C23_33
REMARK   16  A    between atoms: C23_33  and  O6_34
REMARK                            x       y       z     vdW  Elec       q    Type
REMARK                         _______ _______ _______ _____ _____    ______ ____
ROOT
ATOM     14  C   UNL     1      47.906  15.931  17.851  0.00  0.00    +0.156 C 
ENDROOT
BRANCH  14  15
ATOM     15  C   UNL     1      48.711  16.694  18.870  0.00  0.00    +0.381 C 
ATOM     16  O   UNL     1      48.710  16.342  20.031  0.00  0.00    -0.405 OA
BRANCH  15  17
ATOM     17  C   UNL     1      49.496  17.865  18.460  0.00  0.00    -0.156 A 
ATOM     18  C   UNL     1      49.234  19.119  19.025  0.00  0.00    +0.064 A 
ATOM     19  C   UNL     1      49.972  20.216  18.638  0.00  0.00    +0.003 A 
ATOM     20  C   UNL     1      50.976  20.082  17.688  0.00  0.00    +0.115 A 
ATOM     23  C   UNL     1      51.244  18.835  17.121  0.00  0.00    +0.072 A 
ATOM     26  C   UNL     1      50.513  17.729  17.507  0.00  0.00    +0.079 A 
BRANCH  20  21
ATOM     21  O   UNL     1      51.700  21.166  17.311  0.00  0.00    -0.485 OA
ATOM     22  H   UNL     1      52.080  21.662  18.049  0.00  0.00    +0.394 HD
ENDBRANCH  20  21
BRANCH  23  24
ATOM     24  O   UNL     1      52.228  18.708  16.191  0.00  0.00    -0.483 OA
ATOM     25  H   UNL     1      52.064  18.014  15.538  0.00  0.00    +0.390 HD
ENDBRANCH  23  24
ENDBRANCH  15  17
ENDBRANCH  14  15
BRANCH  14  13
ATOM     13  C   UNL     1      46.451  15.837  18.315  0.00  0.00    +0.225 C 
BRANCH  13  12
ATOM     11  C   UNL     1      45.505  18.270  18.753  0.00  0.00    -0.128 C 
ATOM     12  C   UNL     1      45.925  17.190  18.559  0.00  0.00    -0.148 C 
BRANCH  11  10
ATOM      1  C   UNL     1      45.860  20.679  19.011  0.00  0.00    +0.049 A 
ATOM      2  C   UNL     1      45.364  21.947  19.240  0.00  0.00    +0.013 A 
ATOM      3  C   UNL     1      44.008  22.137  19.449  0.00  0.00    +0.092 A 
ATOM      6  C   UNL     1      43.138  21.050  19.429  0.00  0.00    +0.084 A 
ATOM      9  C   UNL     1      43.626  19.777  19.201  0.00  0.00    +0.030 A 
ATOM     10  C   UNL     1      44.993  19.585  18.990  0.00  0.00    +0.024 A 
BRANCH   3   4
ATOM      4  O   UNL     1      43.525  23.388  19.675  0.00  0.00    -0.486 OA
ATOM      5  H   UNL     1      42.602  23.507  19.412  0.00  0.00    +0.391 HD
ENDBRANCH   3   4
BRANCH   6   7
ATOM      7  O   UNL     1      41.807  21.239  19.636  0.00  0.00    -0.485 OA
ATOM      8  H   UNL     1      41.561  22.161  19.800  0.00  0.00    +0.390 HD
ENDBRANCH   6   7
ENDBRANCH  11  10
ENDBRANCH  13  12
ENDBRANCH  14  13
BRANCH  14  27
ATOM     27  O   UNL     1      48.445  14.616  17.706  0.00  0.00    -0.332 OA
BRANCH  27  28
ATOM     28  C   UNL     1      48.657  14.222  16.348  0.00  0.00    +0.290 C 
ATOM     29  C   UNL     1      47.847  12.957  16.052  0.00  0.00    +0.147 C 
ATOM     32  C   UNL     1      48.127  12.506  14.614  0.00  0.00    +0.162 C 
ATOM     35  C   UNL     1      49.632  12.286  14.443  0.00  0.00    +0.171 C 
ATOM     38  C   UNL     1      50.373  13.577  14.802  0.00  0.00    +0.190 C 
ATOM     42  O   UNL     1      50.045  13.957  16.140  0.00  0.00    -0.370 OA
BRANCH  29  30
ATOM     30  O   UNL     1      46.454  13.234  16.205  0.00  0.00    -0.553 OA
ATOM     31  H   UNL     1      46.266  14.059  16.672  0.00  0.00    +0.394 HD
ENDBRANCH  29  30
BRANCH  32  33
ATOM     33  O   UNL     1      47.430  11.286  14.352  0.00  0.00    -0.555 OA
ATOM     34  H   UNL     1      46.521  11.410  14.048  0.00  0.00    +0.395 HD
ENDBRANCH  32  33
BRANCH  35  36
ATOM     36  O   UNL     1      49.913  11.934  13.086  0.00  0.00    -0.550 OA
ATOM     37  H   UNL     1      50.690  11.370  12.979  0.00  0.00    +0.395 HD
ENDBRANCH  35  36
BRANCH  38  39
ATOM     39  C   UNL     1      51.881  13.347  14.690  0.00  0.00    +0.225 C 
BRANCH  39  40
ATOM     40  O   UNL     1      52.337  13.797  13.412  0.00  0.00    -0.566 OA
ATOM     41  H   UNL     1      51.793  14.496  13.024  0.00  0.00    +0.384 HD
ENDBRANCH  39  40
ENDBRANCH  38  39
ENDBRANCH  27  28
ENDBRANCH  14  27
TORSDOF 16
ENDMDL
