MODEL 1
REMARK VINA RESULT:      -5.8      0.000      0.000
REMARK  Name = ZINC01651170
REMARK  1 active torsions:
REMARK  status: ('A' for Active; 'I' for Inactive)
REMARK    1  A    between atoms: C1_1  and  N1_2
REMARK                            x       y       z     vdW  Elec       q    Type
REMARK                         _______ _______ _______ _____ _____    ______ ____
ROOT
ATOM      1  C   UNL     1      49.105  16.978  17.654  0.00  0.00    +0.327 C 
ATOM      2  N   UNL     1      49.036  18.368  18.115  0.00  0.00    -0.464 N 
ATOM      3  C   UNL     1      50.195  19.093  18.277  0.00  0.00    +0.205 A 
ATOM      4  C   UNL     1      51.428  18.500  18.001  0.00  0.00    -0.033 A 
ATOM      5  C   UNL     1      52.588  19.223  18.163  0.00  0.00    +0.085 A 
ATOM      6  C   UNL     1      52.547  20.543  18.598  0.00  0.00    -0.020 A 
ATOM      7  C   UNL     1      51.355  21.143  18.879  0.00  0.00    +0.091 A 
ATOM      8  C   UNL     1      50.157  20.429  18.717  0.00  0.00    -0.132 A 
ATOM      9  C   UNL     1      48.916  21.050  19.002  0.00  0.00    +0.170 A 
ATOM     10  C   UNL     1      47.757  20.332  18.843  0.00  0.00    -0.143 A 
ATOM     11  C   UNL     1      46.325  20.610  19.028  0.00  0.00    -0.133 A 
ATOM     12  C   UNL     1      45.595  21.720  19.440  0.00  0.00    +0.054 A 
ATOM     13  C   UNL     1      44.220  21.650  19.505  0.00  0.00    -0.016 A 
ATOM     14  C   UNL     1      43.561  20.478  19.163  0.00  0.00    +0.034 A 
ATOM     15  C   UNL     1      44.264  19.368  18.755  0.00  0.00    +0.022 A 
ATOM     16  C   UNL     1      45.662  19.413  18.679  0.00  0.00    +0.124 A 
ATOM     17  N   UNL     1      46.579  18.483  18.315  0.00  0.00    -0.540 NA
ATOM     18  C   UNL     1      47.813  18.936  18.382  0.00  0.00    +0.373 A 
ENDROOT
TORSDOF 0
ENDMDL
MODEL 2
REMARK VINA RESULT:      -5.8      2.152      2.238
REMARK  Name = ZINC01651170
REMARK  1 active torsions:
REMARK  status: ('A' for Active; 'I' for Inactive)
REMARK    1  A    between atoms: C1_1  and  N1_2
REMARK                            x       y       z     vdW  Elec       q    Type
REMARK                         _______ _______ _______ _____ _____    ______ ____
ROOT
ATOM      1  C   UNL     1      49.225  16.828  17.915  0.00  0.00    +0.327 C 
ATOM      2  N   UNL     1      49.411  18.252  18.209  0.00  0.00    -0.464 N 
ATOM      3  C   UNL     1      50.345  18.978  17.503  0.00  0.00    +0.205 A 
ATOM      4  C   UNL     1      51.106  18.354  16.515  0.00  0.00    -0.033 A 
ATOM      5  C   UNL     1      52.040  19.079  15.809  0.00  0.00    +0.085 A 
ATOM      6  C   UNL     1      52.233  20.431  16.069  0.00  0.00    -0.020 A 
ATOM      7  C   UNL     1      51.506  21.062  17.034  0.00  0.00    +0.091 A 
ATOM      8  C   UNL     1      50.543  20.346  17.765  0.00  0.00    -0.132 A 
ATOM      9  C   UNL     1      49.780  20.999  18.764  0.00  0.00    +0.170 A 
ATOM     10  C   UNL     1      48.849  20.280  19.470  0.00  0.00    -0.143 A 
ATOM     11  C   UNL     1      47.894  20.584  20.547  0.00  0.00    -0.133 A 
ATOM     12  C   UNL     1      47.571  21.730  21.265  0.00  0.00    +0.054 A 
ATOM     13  C   UNL     1      46.597  21.678  22.238  0.00  0.00    -0.016 A 
ATOM     14  C   UNL     1      45.938  20.486  22.505  0.00  0.00    +0.034 A 
ATOM     15  C   UNL     1      46.243  19.341  21.808  0.00  0.00    +0.022 A 
ATOM     16  C   UNL     1      47.229  19.367  20.813  0.00  0.00    +0.124 A 
ATOM     17  N   UNL     1      47.713  18.403  19.993  0.00  0.00    -0.540 NA
ATOM     18  C   UNL     1      48.653  18.850  19.186  0.00  0.00    +0.373 A 
ENDROOT
TORSDOF 0
ENDMDL
MODEL 3
REMARK VINA RESULT:      -5.6      0.661      5.665
REMARK  Name = ZINC01651170
REMARK  1 active torsions:
REMARK  status: ('A' for Active; 'I' for Inactive)
REMARK    1  A    between atoms: C1_1  and  N1_2
REMARK                            x       y       z     vdW  Elec       q    Type
REMARK                         _______ _______ _______ _____ _____    ______ ____
ROOT
ATOM      1  C   UNL     1      46.296  17.267  17.951  0.00  0.00    +0.327 C 
ATOM      2  N   UNL     1      46.778  18.586  18.370  0.00  0.00    -0.464 N 
ATOM      3  C   UNL     1      45.875  19.551  18.756  0.00  0.00    +0.205 A 
ATOM      4  C   UNL     1      44.509  19.268  18.745  0.00  0.00    -0.033 A 
ATOM      5  C   UNL     1      43.605  20.232  19.131  0.00  0.00    +0.085 A 
ATOM      6  C   UNL     1      44.039  21.490  19.533  0.00  0.00    -0.020 A 
ATOM      7  C   UNL     1      45.368  21.793  19.547  0.00  0.00    +0.091 A 
ATOM      8  C   UNL     1      46.311  20.826  19.164  0.00  0.00    -0.132 A 
ATOM      9  C   UNL     1      47.693  21.134  19.183  0.00  0.00    +0.170 A 
ATOM     10  C   UNL     1      48.597  20.176  18.799  0.00  0.00    -0.143 A 
ATOM     11  C   UNL     1      50.062  20.110  18.685  0.00  0.00    -0.133 A 
ATOM     12  C   UNL     1      51.097  21.007  18.926  0.00  0.00    +0.054 A 
ATOM     13  C   UNL     1      52.403  20.620  18.714  0.00  0.00    -0.016 A 
ATOM     14  C   UNL     1      52.689  19.340  18.261  0.00  0.00    +0.034 A 
ATOM     15  C   UNL     1      51.680  18.439  18.014  0.00  0.00    +0.022 A 
ATOM     16  C   UNL     1      50.344  18.806  18.222  0.00  0.00    +0.124 A 
ATOM     17  N   UNL     1      49.182  18.126  18.062  0.00  0.00    -0.540 NA
ATOM     18  C   UNL     1      48.127  18.848  18.375  0.00  0.00    +0.373 A 
ENDROOT
TORSDOF 0
ENDMDL
MODEL 4
REMARK VINA RESULT:      -5.5      4.250      5.435
REMARK  Name = ZINC01651170
REMARK  1 active torsions:
REMARK  status: ('A' for Active; 'I' for Inactive)
REMARK    1  A    between atoms: C1_1  and  N1_2
REMARK                            x       y       z     vdW  Elec       q    Type
REMARK                         _______ _______ _______ _____ _____    ______ ____
ROOT
ATOM      1  C   UNL     1      45.465  24.381  20.660  0.00  0.00    +0.327 C 
ATOM      2  N   UNL     1      45.252  22.931  20.679  0.00  0.00    -0.464 N 
ATOM      3  C   UNL     1      46.201  22.110  21.247  0.00  0.00    +0.205 A 
ATOM      4  C   UNL     1      47.356  22.662  21.800  0.00  0.00    -0.033 A 
ATOM      5  C   UNL     1      48.306  21.843  22.368  0.00  0.00    +0.085 A 
ATOM      6  C   UNL     1      48.125  20.465  22.399  0.00  0.00    -0.020 A 
ATOM      7  C   UNL     1      47.007  19.900  21.860  0.00  0.00    +0.091 A 
ATOM      8  C   UNL     1      46.021  20.714  21.280  0.00  0.00    -0.132 A 
ATOM      9  C   UNL     1      44.855  20.132  20.725  0.00  0.00    +0.170 A 
ATOM     10  C   UNL     1      43.907  20.946  20.157  0.00  0.00    -0.143 A 
ATOM     11  C   UNL     1      42.608  20.733  19.500  0.00  0.00    -0.133 A 
ATOM     12  C   UNL     1      41.842  19.612  19.202  0.00  0.00    +0.054 A 
ATOM     13  C   UNL     1      40.631  19.761  18.560  0.00  0.00    -0.016 A 
ATOM     14  C   UNL     1      40.175  21.023  18.209  0.00  0.00    +0.034 A 
ATOM     15  C   UNL     1      40.919  22.145  18.493  0.00  0.00    +0.022 A 
ATOM     16  C   UNL     1      42.152  22.022  19.146  0.00  0.00    +0.124 A 
ATOM     17  N   UNL     1      43.065  22.944  19.538  0.00  0.00    -0.540 NA
ATOM     18  C   UNL     1      44.109  22.403  20.130  0.00  0.00    +0.373 A 
ENDROOT
TORSDOF 0
ENDMDL
MODEL 5
REMARK VINA RESULT:      -5.4     19.226     20.620
REMARK  Name = ZINC01651170
REMARK  1 active torsions:
REMARK  status: ('A' for Active; 'I' for Inactive)
REMARK    1  A    between atoms: C1_1  and  N1_2
REMARK                            x       y       z     vdW  Elec       q    Type
REMARK                         _______ _______ _______ _____ _____    ______ ____
ROOT
ATOM      1  C   UNL     1      58.245  34.005   5.664  0.00  0.00    +0.327 C 
ATOM      2  N   UNL     1      57.197  33.257   4.964  0.00  0.00    -0.464 N 
ATOM      3  C   UNL     1      57.535  32.412   3.931  0.00  0.00    +0.205 A 
ATOM      4  C   UNL     1      58.871  32.272   3.559  0.00  0.00    -0.033 A 
ATOM      5  C   UNL     1      59.211  31.426   2.526  0.00  0.00    +0.085 A 
ATOM      6  C   UNL     1      58.234  30.707   1.849  0.00  0.00    -0.020 A 
ATOM      7  C   UNL     1      56.920  30.830   2.190  0.00  0.00    +0.091 A 
ATOM      8  C   UNL     1      56.548  31.682   3.243  0.00  0.00    -0.132 A 
ATOM      9  C   UNL     1      55.184  31.809   3.606  0.00  0.00    +0.170 A 
ATOM     10  C   UNL     1      54.842  32.651   4.633  0.00  0.00    -0.143 A 
ATOM     11  C   UNL     1      53.583  33.042   5.286  0.00  0.00    -0.133 A 
ATOM     12  C   UNL     1      52.247  32.702   5.103  0.00  0.00    +0.054 A 
ATOM     13  C   UNL     1      51.280  33.264   5.909  0.00  0.00    -0.016 A 
ATOM     14  C   UNL     1      51.634  34.168   6.900  0.00  0.00    +0.034 A 
ATOM     15  C   UNL     1      52.949  34.519   7.096  0.00  0.00    +0.022 A 
ATOM     16  C   UNL     1      53.951  33.962   6.292  0.00  0.00    +0.124 A 
ATOM     17  N   UNL     1      55.296  34.131   6.273  0.00  0.00    -0.540 NA
ATOM     18  C   UNL     1      55.884  33.408   5.343  0.00  0.00    +0.373 A 
ENDROOT
TORSDOF 0
ENDMDL
MODEL 6
REMARK VINA RESULT:      -5.4      2.486      3.831
REMARK  Name = ZINC01651170
REMARK  1 active torsions:
REMARK  status: ('A' for Active; 'I' for Inactive)
REMARK    1  A    between atoms: C1_1  and  N1_2
REMARK                            x       y       z     vdW  Elec       q    Type
REMARK                         _______ _______ _______ _____ _____    ______ ____
ROOT
ATOM      1  C   UNL     1      49.088  20.757  19.791  0.00  0.00    +0.327 C 
ATOM      2  N   UNL     1      49.237  19.600  18.903  0.00  0.00    -0.464 N 
ATOM      3  C   UNL     1      50.224  19.599  17.943  0.00  0.00    +0.205 A 
ATOM      4  C   UNL     1      51.075  20.698  17.822  0.00  0.00    -0.033 A 
ATOM      5  C   UNL     1      52.063  20.699  16.862  0.00  0.00    +0.085 A 
ATOM      6  C   UNL     1      52.223  19.612  16.010  0.00  0.00    -0.020 A 
ATOM      7  C   UNL     1      51.400  18.529  16.104  0.00  0.00    +0.091 A 
ATOM      8  C   UNL     1      50.389  18.501  17.078  0.00  0.00    -0.132 A 
ATOM      9  C   UNL     1      49.536  17.375  17.184  0.00  0.00    +0.170 A 
ATOM     10  C   UNL     1      48.550  17.371  18.139  0.00  0.00    -0.143 A 
ATOM     11  C   UNL     1      47.501  16.426  18.551  0.00  0.00    -0.133 A 
ATOM     12  C   UNL     1      47.108  15.164  18.122  0.00  0.00    +0.054 A 
ATOM     13  C   UNL     1      46.053  14.527  18.741  0.00  0.00    -0.016 A 
ATOM     14  C   UNL     1      45.382  15.141  19.788  0.00  0.00    +0.034 A 
ATOM     15  C   UNL     1      45.754  16.391  20.226  0.00  0.00    +0.022 A 
ATOM     16  C   UNL     1      46.823  17.059  19.616  0.00  0.00    +0.124 A 
ATOM     17  N   UNL     1      47.385  18.271  19.847  0.00  0.00    -0.540 NA
ATOM     18  C   UNL     1      48.389  18.527  19.035  0.00  0.00    +0.373 A 
ENDROOT
TORSDOF 0
ENDMDL
MODEL 7
REMARK VINA RESULT:      -5.4      2.548      5.726
REMARK  Name = ZINC01651170
REMARK  1 active torsions:
REMARK  status: ('A' for Active; 'I' for Inactive)
REMARK    1  A    between atoms: C1_1  and  N1_2
REMARK                            x       y       z     vdW  Elec       q    Type
REMARK                         _______ _______ _______ _____ _____    ______ ____
ROOT
ATOM      1  C   UNL     1      48.759  14.726  16.942  0.00  0.00    +0.327 C 
ATOM      2  N   UNL     1      48.425  15.897  17.758  0.00  0.00    -0.464 N 
ATOM      3  C   UNL     1      47.331  15.858  18.593  0.00  0.00    +0.205 A 
ATOM      4  C   UNL     1      46.548  14.705  18.657  0.00  0.00    -0.033 A 
ATOM      5  C   UNL     1      45.454  14.664  19.492  0.00  0.00    +0.085 A 
ATOM      6  C   UNL     1      45.119  15.762  20.275  0.00  0.00    -0.020 A 
ATOM      7  C   UNL     1      45.864  16.902  20.227  0.00  0.00    +0.091 A 
ATOM      8  C   UNL     1      46.989  16.968  19.388  0.00  0.00    -0.132 A 
ATOM      9  C   UNL     1      47.771  18.148  19.339  0.00  0.00    +0.170 A 
ATOM     10  C   UNL     1      48.861  18.193  18.508  0.00  0.00    -0.143 A 
ATOM     11  C   UNL     1      49.886  19.198  18.185  0.00  0.00    -0.133 A 
ATOM     12  C   UNL     1      50.138  20.498  18.606  0.00  0.00    +0.054 A 
ATOM     13  C   UNL     1      51.216  21.188  18.095  0.00  0.00    -0.016 A 
ATOM     14  C   UNL     1      52.050  20.590  17.161  0.00  0.00    +0.034 A 
ATOM     15  C   UNL     1      51.817  19.305  16.729  0.00  0.00    +0.022 A 
ATOM     16  C   UNL     1      50.729  18.582  17.234  0.00  0.00    +0.124 A 
ATOM     17  N   UNL     1      50.282  17.326  16.986  0.00  0.00    -0.540 NA
ATOM     18  C   UNL     1      49.206  17.025  17.682  0.00  0.00    +0.373 A 
ENDROOT
TORSDOF 0
ENDMDL
MODEL 8
REMARK VINA RESULT:      -5.3      3.827      6.235
REMARK  Name = ZINC01651170
REMARK  1 active torsions:
REMARK  status: ('A' for Active; 'I' for Inactive)
REMARK    1  A    between atoms: C1_1  and  N1_2
REMARK                            x       y       z     vdW  Elec       q    Type
REMARK                         _______ _______ _______ _____ _____    ______ ____
ROOT
ATOM      1  C   UNL     1      43.808  17.380  21.760  0.00  0.00    +0.327 C 
ATOM      2  N   UNL     1      44.561  17.699  20.543  0.00  0.00    -0.464 N 
ATOM      3  C   UNL     1      44.731  19.014  20.171  0.00  0.00    +0.205 A 
ATOM      4  C   UNL     1      44.187  20.032  20.953  0.00  0.00    -0.033 A 
ATOM      5  C   UNL     1      44.356  21.348  20.582  0.00  0.00    +0.085 A 
ATOM      6  C   UNL     1      45.067  21.674  19.433  0.00  0.00    -0.020 A 
ATOM      7  C   UNL     1      45.604  20.697  18.649  0.00  0.00    +0.091 A 
ATOM      8  C   UNL     1      45.451  19.348  19.008  0.00  0.00    -0.132 A 
ATOM      9  C   UNL     1      46.012  18.329  18.200  0.00  0.00    +0.170 A 
ATOM     10  C   UNL     1      45.845  17.017  18.566  0.00  0.00    -0.143 A 
ATOM     11  C   UNL     1      46.259  15.719  18.012  0.00  0.00    -0.133 A 
ATOM     12  C   UNL     1      46.985  15.327  16.893  0.00  0.00    +0.054 A 
ATOM     13  C   UNL     1      47.205  13.987  16.653  0.00  0.00    -0.016 A 
ATOM     14  C   UNL     1      46.704  13.029  17.523  0.00  0.00    +0.034 A 
ATOM     15  C   UNL     1      45.981  13.396  18.634  0.00  0.00    +0.022 A 
ATOM     16  C   UNL     1      45.744  14.750  18.901  0.00  0.00    +0.124 A 
ATOM     17  N   UNL     1      45.078  15.372  19.905  0.00  0.00    -0.540 NA
ATOM     18  C   UNL     1      45.090  16.683  19.784  0.00  0.00    +0.373 A 
ENDROOT
TORSDOF 0
ENDMDL
MODEL 9
REMARK VINA RESULT:      -5.3      2.362      6.085
REMARK  Name = ZINC01651170
REMARK  1 active torsions:
REMARK  status: ('A' for Active; 'I' for Inactive)
REMARK    1  A    between atoms: C1_1  and  N1_2
REMARK                            x       y       z     vdW  Elec       q    Type
REMARK                         _______ _______ _______ _____ _____    ______ ____
ROOT
ATOM      1  C   UNL     1      47.007  18.585  20.591  0.00  0.00    +0.327 C 
ATOM      2  N   UNL     1      47.609  17.885  19.452  0.00  0.00    -0.464 N 
ATOM      3  C   UNL     1      47.116  16.658  19.066  0.00  0.00    +0.205 A 
ATOM      4  C   UNL     1      46.047  16.091  19.760  0.00  0.00    -0.033 A 
ATOM      5  C   UNL     1      45.552  14.865  19.376  0.00  0.00    +0.085 A 
ATOM      6  C   UNL     1      46.107  14.183  18.299  0.00  0.00    -0.020 A 
ATOM      7  C   UNL     1      47.156  14.714  17.608  0.00  0.00    +0.091 A 
ATOM      8  C   UNL     1      47.675  15.965  17.977  0.00  0.00    -0.132 A 
ATOM      9  C   UNL     1      48.761  16.523  17.258  0.00  0.00    +0.170 A 
ATOM     10  C   UNL     1      49.257  17.744  17.639  0.00  0.00    -0.143 A 
ATOM     11  C   UNL     1      50.335  18.626  17.165  0.00  0.00    -0.133 A 
ATOM     12  C   UNL     1      51.270  18.552  16.139  0.00  0.00    +0.054 A 
ATOM     13  C   UNL     1      52.170  19.580  15.956  0.00  0.00    -0.016 A 
ATOM     14  C   UNL     1      52.146  20.688  16.791  0.00  0.00    +0.034 A 
ATOM     15  C   UNL     1      51.230  20.780  17.813  0.00  0.00    +0.022 A 
ATOM     16  C   UNL     1      50.304  19.749  18.020  0.00  0.00    +0.124 A 
ATOM     17  N   UNL     1      49.315  19.590  18.933  0.00  0.00    -0.540 NA
ATOM     18  C   UNL     1      48.662  18.457  18.780  0.00  0.00    +0.373 A 
ENDROOT
TORSDOF 0
ENDMDL
