MODEL 1
REMARK VINA RESULT:      -5.7      0.000      0.000
REMARK  Name = ZINC33831297
REMARK  6 active torsions:
REMARK  status: ('A' for Active; 'I' for Inactive)
REMARK    1  A    between atoms: C1_1  and  C2_2
REMARK    2  A    between atoms: C6_6  and  C19_25
REMARK    3  A    between atoms: C6_6  and  C20_26
REMARK    4  A    between atoms: C10_11  and  C18_23
REMARK    5  A    between atoms: C14_16  and  C17_21
REMARK    6  A    between atoms: C16_18  and  O1_20
REMARK                            x       y       z     vdW  Elec       q    Type
REMARK                         _______ _______ _______ _____ _____    ______ ____
ROOT
ATOM      1  C   UNL     1      49.324  18.896  19.233  0.00  0.00    +0.023 C 
ATOM      2  C   UNL     1      49.298  20.384  19.563  0.00  0.00    -0.039 C 
ATOM      3  C   UNL     1      49.688  21.156  18.289  0.00  0.00    +0.018 C 
ATOM      4  C   UNL     1      51.090  20.733  17.857  0.00  0.00    +0.003 C 
ATOM      5  C   UNL     1      52.113  21.088  18.927  0.00  0.00    +0.010 C 
ATOM      6  C   UNL     1      51.746  20.541  20.307  0.00  0.00    -0.047 C 
ATOM      7  C   UNL     1      52.170  19.078  20.424  0.00  0.00    +0.022 C 
ATOM      8  C   UNL     1      52.606  21.337  21.323  0.00  0.00    +0.010 C 
ATOM      9  C   UNL     1      47.889  20.814  19.976  0.00  0.00    +0.043 C 
ATOM     10  C   UNL     1      46.877  20.432  18.890  0.00  0.00    +0.060 C 
ATOM     11  C   UNL     1      45.847  21.544  18.795  0.00  0.00    +0.065 C 
ATOM     12  C   UNL     1      44.958  21.701  19.752  0.00  0.00    -0.212 C 
ATOM     15  C   UNL     1      44.965  20.771  20.949  0.00  0.00    +0.050 C 
ATOM     16  C   UNL     1      46.174  21.066  21.817  0.00  0.00    +0.187 C 
ATOM     19  C   UNL     1      47.453  20.355  21.353  0.00  0.00    -0.100 C 
ATOM     22  C   UNL     1      48.530  20.725  22.389  0.00  0.00    +0.040 C 
ATOM     23  C   UNL     1      49.888  20.145  21.983  0.00  0.00    +0.020 C 
ATOM     24  C   UNL     1      50.291  20.772  20.650  0.00  0.00    +0.004 C 
ENDROOT
BRANCH  12  13
ATOM     13  C   UNL     1      43.954  22.764  19.655  0.00  0.00    +0.474 C 
ATOM     14  O   UNL     1      44.275  23.866  19.265  0.00  0.00    -0.463 OA
ENDBRANCH  12  13
BRANCH  16  17
ATOM     17  O   UNL     1      46.412  22.476  21.838  0.00  0.00    -0.553 OA
ATOM     18  H   UNL     1      46.814  22.794  22.657  0.00  0.00    +0.380 HD
ENDBRANCH  16  17
BRANCH  19  20
ATOM     20  C   UNL     1      47.207  18.875  21.443  0.00  0.00    +0.442 C 
ATOM     21  O   UNL     1      46.932  18.373  22.505  0.00  0.00    -0.438 OA
ENDBRANCH  19  20
TORSDOF 3
ENDMDL
MODEL 2
REMARK VINA RESULT:      -5.6      2.358      3.621
REMARK  Name = ZINC33831297
REMARK  6 active torsions:
REMARK  status: ('A' for Active; 'I' for Inactive)
REMARK    1  A    between atoms: C1_1  and  C2_2
REMARK    2  A    between atoms: C6_6  and  C19_25
REMARK    3  A    between atoms: C6_6  and  C20_26
REMARK    4  A    between atoms: C10_11  and  C18_23
REMARK    5  A    between atoms: C14_16  and  C17_21
REMARK    6  A    between atoms: C16_18  and  O1_20
REMARK                            x       y       z     vdW  Elec       q    Type
REMARK                         _______ _______ _______ _____ _____    ______ ____
ROOT
ATOM      1  C   UNL     1      51.206  18.002  19.481  0.00  0.00    +0.023 C 
ATOM      2  C   UNL     1      50.111  18.450  18.518  0.00  0.00    -0.039 C 
ATOM      3  C   UNL     1      50.080  17.455  17.343  0.00  0.00    +0.018 C 
ATOM      4  C   UNL     1      51.438  17.465  16.644  0.00  0.00    +0.003 C 
ATOM      5  C   UNL     1      51.731  18.839  16.060  0.00  0.00    +0.010 C 
ATOM      6  C   UNL     1      51.606  19.963  17.089  0.00  0.00    -0.047 C 
ATOM      7  C   UNL     1      52.887  20.069  17.914  0.00  0.00    +0.022 C 
ATOM      8  C   UNL     1      51.492  21.277  16.272  0.00  0.00    +0.010 C 
ATOM      9  C   UNL     1      48.747  18.420  19.212  0.00  0.00    +0.043 C 
ATOM     10  C   UNL     1      48.482  17.032  19.805  0.00  0.00    +0.060 C 
ATOM     11  C   UNL     1      47.008  16.715  19.620  0.00  0.00    +0.065 C 
ATOM     12  C   UNL     1      46.105  17.340  20.343  0.00  0.00    -0.212 C 
ATOM     15  C   UNL     1      46.538  18.377  21.360  0.00  0.00    +0.050 C 
ATOM     16  C   UNL     1      47.040  19.616  20.644  0.00  0.00    +0.187 C 
ATOM     19  C   UNL     1      48.514  19.527  20.220  0.00  0.00    -0.100 C 
ATOM     22  C   UNL     1      48.842  20.889  19.581  0.00  0.00    +0.040 C 
ATOM     23  C   UNL     1      50.270  20.894  19.030  0.00  0.00    +0.020 C 
ATOM     24  C   UNL     1      50.358  19.834  17.934  0.00  0.00    +0.004 C 
ENDROOT
BRANCH  12  13
ATOM     13  C   UNL     1      44.684  17.026  20.176  0.00  0.00    +0.474 C 
ATOM     14  O   UNL     1      43.876  17.921  20.051  0.00  0.00    -0.463 OA
ENDBRANCH  12  13
BRANCH  16  17
ATOM     17  O   UNL     1      46.240  19.851  19.483  0.00  0.00    -0.553 OA
ATOM     18  H   UNL     1      46.556  19.399  18.689  0.00  0.00    +0.380 HD
ENDBRANCH  16  17
BRANCH  19  20
ATOM     20  C   UNL     1      49.337  19.387  21.469  0.00  0.00    +0.442 C 
ATOM     21  O   UNL     1      49.324  20.261  22.302  0.00  0.00    -0.438 OA
ENDBRANCH  19  20
TORSDOF 3
ENDMDL
MODEL 3
REMARK VINA RESULT:      -5.6      2.797      5.900
REMARK  Name = ZINC33831297
REMARK  6 active torsions:
REMARK  status: ('A' for Active; 'I' for Inactive)
REMARK    1  A    between atoms: C1_1  and  C2_2
REMARK    2  A    between atoms: C6_6  and  C19_25
REMARK    3  A    between atoms: C6_6  and  C20_26
REMARK    4  A    between atoms: C10_11  and  C18_23
REMARK    5  A    between atoms: C14_16  and  C17_21
REMARK    6  A    between atoms: C16_18  and  O1_20
REMARK                            x       y       z     vdW  Elec       q    Type
REMARK                         _______ _______ _______ _____ _____    ______ ____
ROOT
ATOM      1  C   UNL     1      47.773  20.807  20.990  0.00  0.00    +0.023 C 
ATOM      2  C   UNL     1      47.550  20.104  19.655  0.00  0.00    -0.039 C 
ATOM      3  C   UNL     1      46.807  21.082  18.726  0.00  0.00    +0.018 C 
ATOM      4  C   UNL     1      45.468  21.455  19.360  0.00  0.00    +0.003 C 
ATOM      5  C   UNL     1      44.585  20.224  19.513  0.00  0.00    +0.010 C 
ATOM      6  C   UNL     1      45.278  19.084  20.259  0.00  0.00    -0.047 C 
ATOM      7  C   UNL     1      45.185  19.307  21.768  0.00  0.00    +0.022 C 
ATOM      8  C   UNL     1      44.454  17.808  19.946  0.00  0.00    +0.010 C 
ATOM      9  C   UNL     1      48.891  19.750  19.009  0.00  0.00    +0.043 C 
ATOM     10  C   UNL     1      49.767  21.001  18.880  0.00  0.00    +0.060 C 
ATOM     11  C   UNL     1      50.519  20.914  17.563  0.00  0.00    +0.065 C 
ATOM     12  C   UNL     1      51.503  20.052  17.423  0.00  0.00    -0.212 C 
ATOM     15  C   UNL     1      51.882  19.146  18.578  0.00  0.00    +0.050 C 
ATOM     16  C   UNL     1      50.799  18.104  18.786  0.00  0.00    +0.187 C 
ATOM     19  C   UNL     1      49.632  18.596  19.655  0.00  0.00    -0.100 C 
ATOM     22  C   UNL     1      48.688  17.389  19.801  0.00  0.00    +0.040 C 
ATOM     23  C   UNL     1      47.428  17.782  20.577  0.00  0.00    +0.020 C 
ATOM     24  C   UNL     1      46.692  18.852  19.774  0.00  0.00    +0.004 C 
ENDROOT
BRANCH  12  13
ATOM     13  C   UNL     1      52.240  19.976  16.159  0.00  0.00    +0.474 C 
ATOM     14  O   UNL     1      52.198  18.964  15.493  0.00  0.00    -0.463 OA
ENDBRANCH  12  13
BRANCH  16  17
ATOM     17  O   UNL     1      50.286  17.690  17.518  0.00  0.00    -0.553 OA
ATOM     18  H   UNL     1      50.224  16.731  17.413  0.00  0.00    +0.380 HD
ENDBRANCH  16  17
BRANCH  19  20
ATOM     20  C   UNL     1      50.184  18.923  21.014  0.00  0.00    +0.442 C 
ATOM     21  O   UNL     1      50.748  18.071  21.657  0.00  0.00    -0.438 OA
ENDBRANCH  19  20
TORSDOF 3
ENDMDL
MODEL 4
REMARK VINA RESULT:      -5.4      4.455      7.143
REMARK  Name = ZINC33831297
REMARK  6 active torsions:
REMARK  status: ('A' for Active; 'I' for Inactive)
REMARK    1  A    between atoms: C1_1  and  C2_2
REMARK    2  A    between atoms: C6_6  and  C19_25
REMARK    3  A    between atoms: C6_6  and  C20_26
REMARK    4  A    between atoms: C10_11  and  C18_23
REMARK    5  A    between atoms: C14_16  and  C17_21
REMARK    6  A    between atoms: C16_18  and  O1_20
REMARK                            x       y       z     vdW  Elec       q    Type
REMARK                         _______ _______ _______ _____ _____    ______ ____
ROOT
ATOM      1  C   UNL     1      46.435  18.898  20.376  0.00  0.00    +0.023 C 
ATOM      2  C   UNL     1      45.339  18.150  19.626  0.00  0.00    -0.039 C 
ATOM      3  C   UNL     1      44.939  19.000  18.406  0.00  0.00    +0.018 C 
ATOM      4  C   UNL     1      44.423  20.354  18.886  0.00  0.00    +0.003 C 
ATOM      5  C   UNL     1      43.175  20.181  19.741  0.00  0.00    +0.010 C 
ATOM      6  C   UNL     1      43.375  19.198  20.895  0.00  0.00    -0.047 C 
ATOM      7  C   UNL     1      44.052  19.897  22.072  0.00  0.00    +0.022 C 
ATOM      8  C   UNL     1      41.952  18.804  21.370  0.00  0.00    +0.010 C 
ATOM      9  C   UNL     1      45.861  16.802  19.125  0.00  0.00    +0.043 C 
ATOM     10  C   UNL     1      47.126  17.001  18.281  0.00  0.00    +0.060 C 
ATOM     11  C   UNL     1      47.084  16.010  17.131  0.00  0.00    +0.065 C 
ATOM     12  C   UNL     1      47.280  14.729  17.358  0.00  0.00    -0.212 C 
ATOM     15  C   UNL     1      47.546  14.246  18.770  0.00  0.00    +0.050 C 
ATOM     16  C   UNL     1      46.276  14.351  19.593  0.00  0.00    +0.187 C 
ATOM     19  C   UNL     1      46.048  15.746  20.196  0.00  0.00    -0.100 C 
ATOM     22  C   UNL     1      44.764  15.626  21.037  0.00  0.00    +0.040 C 
ATOM     23  C   UNL     1      44.376  16.988  21.621  0.00  0.00    +0.020 C 
ATOM     24  C   UNL     1      44.084  17.935  20.460  0.00  0.00    +0.004 C 
ENDROOT
BRANCH  12  13
ATOM     13  C   UNL     1      47.255  13.774  16.248  0.00  0.00    +0.474 C 
ATOM     14  O   UNL     1      46.644  12.733  16.359  0.00  0.00    -0.463 OA
ENDBRANCH  12  13
BRANCH  16  17
ATOM     17  O   UNL     1      45.152  14.011  18.779  0.00  0.00    -0.553 OA
ATOM     18  H   UNL     1      45.050  14.570  17.997  0.00  0.00    +0.380 HD
ENDBRANCH  16  17
BRANCH  19  20
ATOM     20  C   UNL     1      47.192  16.030  21.127  0.00  0.00    +0.442 C 
ATOM     21  O   UNL     1      47.413  15.291  22.056  0.00  0.00    -0.438 OA
ENDBRANCH  19  20
TORSDOF 3
ENDMDL
MODEL 5
REMARK VINA RESULT:      -5.1      2.258      3.524
REMARK  Name = ZINC33831297
REMARK  6 active torsions:
REMARK  status: ('A' for Active; 'I' for Inactive)
REMARK    1  A    between atoms: C1_1  and  C2_2
REMARK    2  A    between atoms: C6_6  and  C19_25
REMARK    3  A    between atoms: C6_6  and  C20_26
REMARK    4  A    between atoms: C10_11  and  C18_23
REMARK    5  A    between atoms: C14_16  and  C17_21
REMARK    6  A    between atoms: C16_18  and  O1_20
REMARK                            x       y       z     vdW  Elec       q    Type
REMARK                         _______ _______ _______ _____ _____    ______ ____
ROOT
ATOM      1  C   UNL     1      47.704  17.320  20.475  0.00  0.00    +0.023 C 
ATOM      2  C   UNL     1      47.353  17.972  19.142  0.00  0.00    -0.039 C 
ATOM      3  C   UNL     1      46.772  16.883  18.222  0.00  0.00    +0.018 C 
ATOM      4  C   UNL     1      47.818  15.789  18.018  0.00  0.00    +0.003 C 
ATOM      5  C   UNL     1      49.052  16.349  17.325  0.00  0.00    +0.010 C 
ATOM      6  C   UNL     1      49.630  17.574  18.035  0.00  0.00    -0.047 C 
ATOM      7  C   UNL     1      50.515  17.139  19.202  0.00  0.00    +0.022 C 
ATOM      8  C   UNL     1      50.560  18.264  17.004  0.00  0.00    +0.010 C 
ATOM      9  C   UNL     1      46.289  19.053  19.342  0.00  0.00    +0.043 C 
ATOM     10  C   UNL     1      45.064  18.469  20.055  0.00  0.00    +0.060 C 
ATOM     11  C   UNL     1      43.823  19.107  19.456  0.00  0.00    +0.065 C 
ATOM     12  C   UNL     1      43.537  20.364  19.716  0.00  0.00    -0.212 C 
ATOM     15  C   UNL     1      44.451  21.174  20.615  0.00  0.00    +0.050 C 
ATOM     16  C   UNL     1      45.753  21.463  19.892  0.00  0.00    +0.187 C 
ATOM     19  C   UNL     1      46.781  20.327  20.000  0.00  0.00    -0.100 C 
ATOM     22  C   UNL     1      48.037  20.837  19.270  0.00  0.00    +0.040 C 
ATOM     23  C   UNL     1      49.113  19.748  19.228  0.00  0.00    +0.020 C 
ATOM     24  C   UNL     1      48.561  18.568  18.432  0.00  0.00    +0.004 C 
ENDROOT
BRANCH  12  13
ATOM     13  C   UNL     1      42.333  20.977  19.151  0.00  0.00    +0.474 C 
ATOM     14  O   UNL     1      41.751  20.436  18.235  0.00  0.00    -0.463 OA
ENDBRANCH  12  13
BRANCH  16  17
ATOM     17  O   UNL     1      45.485  21.713  18.511  0.00  0.00    -0.553 OA
ATOM     18  H   UNL     1      45.515  22.648  18.268  0.00  0.00    +0.380 HD
ENDBRANCH  16  17
BRANCH  19  20
ATOM     20  C   UNL     1      47.121  20.160  21.454  0.00  0.00    +0.442 C 
ATOM     21  O   UNL     1      47.620  21.073  22.066  0.00  0.00    -0.438 OA
ENDBRANCH  19  20
TORSDOF 3
ENDMDL
MODEL 6
REMARK VINA RESULT:      -5.0      3.127      6.262
REMARK  Name = ZINC33831297
REMARK  6 active torsions:
REMARK  status: ('A' for Active; 'I' for Inactive)
REMARK    1  A    between atoms: C1_1  and  C2_2
REMARK    2  A    between atoms: C6_6  and  C19_25
REMARK    3  A    between atoms: C6_6  and  C20_26
REMARK    4  A    between atoms: C10_11  and  C18_23
REMARK    5  A    between atoms: C14_16  and  C17_21
REMARK    6  A    between atoms: C16_18  and  O1_20
REMARK                            x       y       z     vdW  Elec       q    Type
REMARK                         _______ _______ _______ _____ _____    ______ ____
ROOT
ATOM      1  C   UNL     1      46.773  19.342  21.209  0.00  0.00    +0.023 C 
ATOM      2  C   UNL     1      46.628  19.624  19.717  0.00  0.00    -0.039 C 
ATOM      3  C   UNL     1      46.911  21.120  19.490  0.00  0.00    +0.018 C 
ATOM      4  C   UNL     1      45.904  21.946  20.287  0.00  0.00    +0.003 C 
ATOM      5  C   UNL     1      44.486  21.680  19.800  0.00  0.00    +0.010 C 
ATOM      6  C   UNL     1      44.131  20.193  19.788  0.00  0.00    -0.047 C 
ATOM      7  C   UNL     1      43.708  19.740  21.185  0.00  0.00    +0.022 C 
ATOM      8  C   UNL     1      42.880  20.061  18.880  0.00  0.00    +0.010 C 
ATOM      9  C   UNL     1      47.652  18.813  18.920  0.00  0.00    +0.043 C 
ATOM     10  C   UNL     1      49.068  19.087  19.439  0.00  0.00    +0.060 C 
ATOM     11  C   UNL     1      50.008  19.114  18.247  0.00  0.00    +0.065 C 
ATOM     12  C   UNL     1      50.313  17.997  17.622  0.00  0.00    -0.212 C 
ATOM     15  C   UNL     1      49.722  16.684  18.095  0.00  0.00    +0.050 C 
ATOM     16  C   UNL     1      48.242  16.642  17.765  0.00  0.00    +0.187 C 
ATOM     19  C   UNL     1      47.357  17.330  18.816  0.00  0.00    -0.100 C 
ATOM     22  C   UNL     1      45.909  17.120  18.337  0.00  0.00    +0.040 C 
ATOM     23  C   UNL     1      44.927  17.847  19.261  0.00  0.00    +0.020 C 
ATOM     24  C   UNL     1      45.228  19.342  19.189  0.00  0.00    +0.004 C 
ENDROOT
BRANCH  12  13
ATOM     13  C   UNL     1      51.231  18.020  16.481  0.00  0.00    +0.474 C 
ATOM     14  O   UNL     1      52.049  18.909  16.379  0.00  0.00    -0.463 OA
ENDBRANCH  12  13
BRANCH  16  17
ATOM     17  O   UNL     1      48.019  17.263  16.497  0.00  0.00    -0.553 OA
ATOM     18  H   UNL     1      48.712  17.085  15.846  0.00  0.00    +0.380 HD
ENDBRANCH  16  17
BRANCH  19  20
ATOM     20  C   UNL     1      47.533  16.589  20.111  0.00  0.00    +0.442 C 
ATOM     21  O   UNL     1      47.223  15.425  20.187  0.00  0.00    -0.438 OA
ENDBRANCH  19  20
TORSDOF 3
ENDMDL
MODEL 7
REMARK VINA RESULT:      -5.0      3.401      5.149
REMARK  Name = ZINC33831297
REMARK  6 active torsions:
REMARK  status: ('A' for Active; 'I' for Inactive)
REMARK    1  A    between atoms: C1_1  and  C2_2
REMARK    2  A    between atoms: C6_6  and  C19_25
REMARK    3  A    between atoms: C6_6  and  C20_26
REMARK    4  A    between atoms: C10_11  and  C18_23
REMARK    5  A    between atoms: C14_16  and  C17_21
REMARK    6  A    between atoms: C16_18  and  O1_20
REMARK                            x       y       z     vdW  Elec       q    Type
REMARK                         _______ _______ _______ _____ _____    ______ ____
ROOT
ATOM      1  C   UNL     1      50.269  17.798  20.470  0.00  0.00    +0.023 C 
ATOM      2  C   UNL     1      49.974  17.842  18.974  0.00  0.00    -0.039 C 
ATOM      3  C   UNL     1      51.157  17.183  18.241  0.00  0.00    +0.018 C 
ATOM      4  C   UNL     1      52.434  17.960  18.552  0.00  0.00    +0.003 C 
ATOM      5  C   UNL     1      52.331  19.390  18.042  0.00  0.00    +0.010 C 
ATOM      6  C   UNL     1      51.080  20.113  18.543  0.00  0.00    -0.047 C 
ATOM      7  C   UNL     1      51.315  20.660  19.951  0.00  0.00    +0.022 C 
ATOM      8  C   UNL     1      50.896  21.340  17.614  0.00  0.00    +0.010 C 
ATOM      9  C   UNL     1      48.706  17.045  18.658  0.00  0.00    +0.043 C 
ATOM     10  C   UNL     1      48.828  15.615  19.195  0.00  0.00    +0.060 C 
ATOM     11  C   UNL     1      48.175  14.679  18.194  0.00  0.00    +0.065 C 
ATOM     12  C   UNL     1      46.865  14.659  18.068  0.00  0.00    -0.212 C 
ATOM     15  C   UNL     1      46.012  15.573  18.925  0.00  0.00    +0.050 C 
ATOM     16  C   UNL     1      46.184  17.009  18.468  0.00  0.00    +0.187 C 
ATOM     19  C   UNL     1      47.409  17.706  19.080  0.00  0.00    -0.100 C 
ATOM     22  C   UNL     1      47.367  19.152  18.552  0.00  0.00    +0.040 C 
ATOM     23  C   UNL     1      48.599  19.931  19.021  0.00  0.00    +0.020 C 
ATOM     24  C   UNL     1      49.837  19.258  18.433  0.00  0.00    +0.004 C 
ENDROOT
BRANCH  12  13
ATOM     13  C   UNL     1      46.232  13.747  17.113  0.00  0.00    +0.474 C 
ATOM     14  O   UNL     1      46.918  13.060  16.387  0.00  0.00    -0.463 OA
ENDBRANCH  12  13
BRANCH  16  17
ATOM     17  O   UNL     1      46.297  17.045  17.044  0.00  0.00    -0.553 OA
ATOM     18  H   UNL     1      47.062  17.541  16.723  0.00  0.00    +0.380 HD
ENDBRANCH  16  17
BRANCH  19  20
ATOM     20  C   UNL     1      47.211  17.747  20.569  0.00  0.00    +0.442 C 
ATOM     21  O   UNL     1      46.270  18.340  21.036  0.00  0.00    -0.438 OA
ENDBRANCH  19  20
TORSDOF 3
ENDMDL
MODEL 8
REMARK VINA RESULT:      -5.0     20.070     22.500
REMARK  Name = ZINC33831297
REMARK  6 active torsions:
REMARK  status: ('A' for Active; 'I' for Inactive)
REMARK    1  A    between atoms: C1_1  and  C2_2
REMARK    2  A    between atoms: C6_6  and  C19_25
REMARK    3  A    between atoms: C6_6  and  C20_26
REMARK    4  A    between atoms: C10_11  and  C18_23
REMARK    5  A    between atoms: C14_16  and  C17_21
REMARK    6  A    between atoms: C16_18  and  O1_20
REMARK                            x       y       z     vdW  Elec       q    Type
REMARK                         _______ _______ _______ _____ _____    ______ ____
ROOT
ATOM      1  C   UNL     1      54.901  33.915   2.510  0.00  0.00    +0.023 C 
ATOM      2  C   UNL     1      55.026  32.796   3.538  0.00  0.00    -0.039 C 
ATOM      3  C   UNL     1      53.932  31.755   3.237  0.00  0.00    +0.018 C 
ATOM      4  C   UNL     1      52.563  32.423   3.344  0.00  0.00    +0.003 C 
ATOM      5  C   UNL     1      52.322  32.931   4.758  0.00  0.00    +0.010 C 
ATOM      6  C   UNL     1      53.445  33.835   5.266  0.00  0.00    -0.047 C 
ATOM      7  C   UNL     1      53.250  35.260   4.750  0.00  0.00    +0.022 C 
ATOM      8  C   UNL     1      53.281  33.894   6.807  0.00  0.00    +0.010 C 
ATOM      9  C   UNL     1      56.389  32.111   3.417  0.00  0.00    +0.043 C 
ATOM     10  C   UNL     1      56.615  31.623   1.982  0.00  0.00    +0.060 C 
ATOM     11  C   UNL     1      57.337  30.289   2.047  0.00  0.00    +0.065 C 
ATOM     12  C   UNL     1      58.604  30.243   2.400  0.00  0.00    -0.212 C 
ATOM     15  C   UNL     1      59.338  31.524   2.743  0.00  0.00    +0.050 C 
ATOM     16  C   UNL     1      58.833  32.064   4.067  0.00  0.00    +0.187 C 
ATOM     19  C   UNL     1      57.562  32.917   3.939  0.00  0.00    -0.100 C 
ATOM     22  C   UNL     1      57.256  33.417   5.363  0.00  0.00    +0.040 C 
ATOM     23  C   UNL     1      55.947  34.212   5.383  0.00  0.00    +0.020 C 
ATOM     24  C   UNL     1      54.817  33.273   4.969  0.00  0.00    +0.004 C 
ENDROOT
BRANCH  12  13
ATOM     13  C   UNL     1      59.306  28.959   2.449  0.00  0.00    +0.474 C 
ATOM     14  O   UNL     1      59.338  28.325   3.483  0.00  0.00    -0.463 OA
ENDBRANCH  12  13
BRANCH  16  17
ATOM     17  O   UNL     1      58.570  30.975   4.955  0.00  0.00    -0.553 OA
ATOM     18  H   UNL     1      57.691  30.586   4.850  0.00  0.00    +0.380 HD
ENDBRANCH  16  17
BRANCH  19  20
ATOM     20  C   UNL     1      57.900  34.108   3.088  0.00  0.00    +0.442 C 
ATOM     21  O   UNL     1      58.771  34.869   3.432  0.00  0.00    -0.438 OA
ENDBRANCH  19  20
TORSDOF 3
ENDMDL
MODEL 9
REMARK VINA RESULT:      -4.9     20.194     21.954
REMARK  Name = ZINC33831297
REMARK  6 active torsions:
REMARK  status: ('A' for Active; 'I' for Inactive)
REMARK    1  A    between atoms: C1_1  and  C2_2
REMARK    2  A    between atoms: C6_6  and  C19_25
REMARK    3  A    between atoms: C6_6  and  C20_26
REMARK    4  A    between atoms: C10_11  and  C18_23
REMARK    5  A    between atoms: C14_16  and  C17_21
REMARK    6  A    between atoms: C16_18  and  O1_20
REMARK                            x       y       z     vdW  Elec       q    Type
REMARK                         _______ _______ _______ _____ _____    ______ ____
ROOT
ATOM      1  C   UNL     1      57.176  34.092   2.490  0.00  0.00    +0.023 C 
ATOM      2  C   UNL     1      56.871  33.215   3.700  0.00  0.00    -0.039 C 
ATOM      3  C   UNL     1      57.988  33.436   4.736  0.00  0.00    +0.018 C 
ATOM      4  C   UNL     1      59.328  33.041   4.119  0.00  0.00    +0.003 C 
ATOM      5  C   UNL     1      59.338  31.562   3.758  0.00  0.00    +0.010 C 
ATOM      6  C   UNL     1      58.156  31.156   2.877  0.00  0.00    -0.047 C 
ATOM      7  C   UNL     1      58.449  31.489   1.415  0.00  0.00    +0.022 C 
ATOM      8  C   UNL     1      58.065  29.611   2.972  0.00  0.00    +0.010 C 
ATOM      9  C   UNL     1      55.539  33.624   4.332  0.00  0.00    +0.043 C 
ATOM     10  C   UNL     1      55.548  35.119   4.672  0.00  0.00    +0.060 C 
ATOM     11  C   UNL     1      54.810  35.306   5.986  0.00  0.00    +0.065 C 
ATOM     12  C   UNL     1      53.502  35.171   6.032  0.00  0.00    -0.212 C 
ATOM     15  C   UNL     1      52.735  34.826   4.771  0.00  0.00    +0.050 C 
ATOM     16  C   UNL     1      53.021  33.389   4.376  0.00  0.00    +0.187 C 
ATOM     19  C   UNL     1      54.305  33.223   3.549  0.00  0.00    -0.100 C 
ATOM     22  C   UNL     1      54.377  31.725   3.198  0.00  0.00    +0.040 C 
ATOM     23  C   UNL     1      55.673  31.412   2.445  0.00  0.00    +0.020 C 
ATOM     24  C   UNL     1      56.846  31.729   3.370  0.00  0.00    +0.004 C 
ENDROOT
BRANCH  12  13
ATOM     13  C   UNL     1      52.787  35.366   7.295  0.00  0.00    +0.474 C 
ATOM     14  O   UNL     1      51.850  34.650   7.577  0.00  0.00    -0.463 OA
ENDBRANCH  12  13
BRANCH  16  17
ATOM     17  O   UNL     1      53.122  32.584   5.553  0.00  0.00    -0.553 OA
ATOM     18  H   UNL     1      53.919  32.750   6.075  0.00  0.00    +0.380 HD
ENDBRANCH  16  17
BRANCH  19  20
ATOM     20  C   UNL     1      54.125  33.994   2.273  0.00  0.00    +0.442 C 
ATOM     21  O   UNL     1      53.254  33.683   1.497  0.00  0.00    -0.438 OA
ENDBRANCH  19  20
TORSDOF 3
ENDMDL
