MODEL 1
REMARK VINA RESULT:      -5.5      0.000      0.000
REMARK  Name = ZINC95486151
REMARK  6 active torsions:
REMARK  status: ('A' for Active; 'I' for Inactive)
REMARK    1  A    between atoms: C1_1  and  C2_2
REMARK    2  A    between atoms: C6_6  and  C19_25
REMARK    3  A    between atoms: C6_6  and  C20_26
REMARK    4  A    between atoms: C10_11  and  C18_23
REMARK    5  A    between atoms: C14_16  and  C17_21
REMARK    6  A    between atoms: C16_18  and  O1_20
REMARK                            x       y       z     vdW  Elec       q    Type
REMARK                         _______ _______ _______ _____ _____    ______ ____
ROOT
ATOM      1  C   UNL     1      50.188  17.856  20.273  0.00  0.00    +0.025 C 
ATOM      2  C   UNL     1      49.407  18.122  18.987  0.00  0.00    -0.044 C 
ATOM      3  C   UNL     1      49.143  16.742  18.358  0.00  0.00    +0.022 C 
ATOM      4  C   UNL     1      50.487  16.056  18.097  0.00  0.00    +0.001 C 
ATOM      5  C   UNL     1      51.280  16.859  17.074  0.00  0.00    +0.010 C 
ATOM      6  C   UNL     1      51.453  18.325  17.464  0.00  0.00    -0.048 C 
ATOM      7  C   UNL     1      52.621  18.477  18.437  0.00  0.00    +0.021 C 
ATOM      8  C   UNL     1      51.858  19.069  16.163  0.00  0.00    +0.009 C 
ATOM      9  C   UNL     1      48.059  18.813  19.288  0.00  0.00    +0.057 C 
ATOM     10  C   UNL     1      47.260  18.761  17.978  0.00  0.00    +0.059 C 
ATOM     11  C   UNL     1      45.779  18.717  18.298  0.00  0.00    +0.068 C 
ATOM     12  C   UNL     1      45.175  19.833  18.664  0.00  0.00    -0.219 C 
ATOM     15  C   UNL     1      46.011  21.094  18.781  0.00  0.00    +0.063 C 
ATOM     16  C   UNL     1      46.900  20.961  20.005  0.00  0.00    +0.177 C 
ATOM     19  C   UNL     1      48.231  20.247  19.724  0.00  0.00    -0.096 C 
ATOM     22  C   UNL     1      49.030  21.059  18.719  0.00  0.00    +0.033 C 
ATOM     23  C   UNL     1      50.388  20.385  18.469  0.00  0.00    +0.027 C 
ATOM     24  C   UNL     1      50.173  18.960  17.973  0.00  0.00    +0.003 C 
ENDROOT
BRANCH  12  13
ATOM     13  C   UNL     1      43.744  19.858  18.939  0.00  0.00    +0.475 C 
ATOM     14  O   UNL     1      43.343  20.153  20.045  0.00  0.00    -0.464 OA
ENDBRANCH  12  13
BRANCH  16  17
ATOM     17  O   UNL     1      46.215  20.236  21.029  0.00  0.00    -0.560 OA
ATOM     18  H   UNL     1      45.420  19.780  20.723  0.00  0.00    +0.381 HD
ENDBRANCH  16  17
BRANCH  19  20
ATOM     20  C   UNL     1      48.921  20.358  21.064  0.00  0.00    +0.456 C 
ATOM     21  O   UNL     1      48.806  21.364  21.721  0.00  0.00    -0.455 OA
ENDBRANCH  19  20
TORSDOF 3
ENDMDL
MODEL 2
REMARK VINA RESULT:      -5.4      1.947      3.433
REMARK  Name = ZINC95486151
REMARK  6 active torsions:
REMARK  status: ('A' for Active; 'I' for Inactive)
REMARK    1  A    between atoms: C1_1  and  C2_2
REMARK    2  A    between atoms: C6_6  and  C19_25
REMARK    3  A    between atoms: C6_6  and  C20_26
REMARK    4  A    between atoms: C10_11  and  C18_23
REMARK    5  A    between atoms: C14_16  and  C17_21
REMARK    6  A    between atoms: C16_18  and  O1_20
REMARK                            x       y       z     vdW  Elec       q    Type
REMARK                         _______ _______ _______ _____ _____    ______ ____
ROOT
ATOM      1  C   UNL     1      50.336  18.848  17.320  0.00  0.00    +0.025 C 
ATOM      2  C   UNL     1      49.751  19.579  18.527  0.00  0.00    -0.044 C 
ATOM      3  C   UNL     1      50.177  21.051  18.379  0.00  0.00    +0.022 C 
ATOM      4  C   UNL     1      51.707  21.117  18.337  0.00  0.00    +0.001 C 
ATOM      5  C   UNL     1      52.276  20.629  19.663  0.00  0.00    +0.010 C 
ATOM      6  C   UNL     1      51.774  19.241  20.057  0.00  0.00    -0.048 C 
ATOM      7  C   UNL     1      52.594  18.164  19.348  0.00  0.00    +0.021 C 
ATOM      8  C   UNL     1      52.066  19.094  21.574  0.00  0.00    +0.009 C 
ATOM      9  C   UNL     1      48.210  19.492  18.537  0.00  0.00    +0.057 C 
ATOM     10  C   UNL     1      47.740  20.489  19.606  0.00  0.00    +0.059 C 
ATOM     11  C   UNL     1      46.370  21.018  19.230  0.00  0.00    +0.068 C 
ATOM     12  C   UNL     1      45.316  20.249  19.431  0.00  0.00    -0.219 C 
ATOM     15  C   UNL     1      45.540  18.858  19.995  0.00  0.00    +0.063 C 
ATOM     16  C   UNL     1      46.180  18.006  18.914  0.00  0.00    +0.177 C 
ATOM     19  C   UNL     1      47.713  18.109  18.874  0.00  0.00    -0.096 C 
ATOM     22  C   UNL     1      48.279  17.602  20.189  0.00  0.00    +0.033 C 
ATOM     23  C   UNL     1      49.815  17.648  20.145  0.00  0.00    +0.027 C 
ATOM     24  C   UNL     1      50.280  19.071  19.861  0.00  0.00    +0.003 C 
ENDROOT
BRANCH  12  13
ATOM     13  C   UNL     1      43.971  20.724  19.131  0.00  0.00    +0.475 C 
ATOM     14  O   UNL     1      43.209  20.027  18.495  0.00  0.00    -0.464 OA
ENDBRANCH  12  13
BRANCH  16  17
ATOM     17  O   UNL     1      45.676  18.387  17.631  0.00  0.00    -0.560 OA
ATOM     18  H   UNL     1      45.244  17.669  17.148  0.00  0.00    +0.381 HD
ENDBRANCH  16  17
BRANCH  19  20
ATOM     20  C   UNL     1      48.054  17.101  17.802  0.00  0.00    +0.456 C 
ATOM     21  O   UNL     1      47.442  16.063  17.731  0.00  0.00    -0.455 OA
ENDBRANCH  19  20
TORSDOF 3
ENDMDL
MODEL 3
REMARK VINA RESULT:      -5.2      2.036      2.855
REMARK  Name = ZINC95486151
REMARK  6 active torsions:
REMARK  status: ('A' for Active; 'I' for Inactive)
REMARK    1  A    between atoms: C1_1  and  C2_2
REMARK    2  A    between atoms: C6_6  and  C19_25
REMARK    3  A    between atoms: C6_6  and  C20_26
REMARK    4  A    between atoms: C10_11  and  C18_23
REMARK    5  A    between atoms: C14_16  and  C17_21
REMARK    6  A    between atoms: C16_18  and  O1_20
REMARK                            x       y       z     vdW  Elec       q    Type
REMARK                         _______ _______ _______ _____ _____    ______ ____
ROOT
ATOM      1  C   UNL     1      50.879  19.022  20.855  0.00  0.00    +0.025 C 
ATOM      2  C   UNL     1      50.313  18.595  19.501  0.00  0.00    -0.044 C 
ATOM      3  C   UNL     1      51.335  17.610  18.905  0.00  0.00    +0.022 C 
ATOM      4  C   UNL     1      52.687  18.320  18.780  0.00  0.00    +0.001 C 
ATOM      5  C   UNL     1      52.567  19.474  17.794  0.00  0.00    +0.010 C 
ATOM      6  C   UNL     1      51.441  20.446  18.140  0.00  0.00    -0.048 C 
ATOM      7  C   UNL     1      51.913  21.443  19.197  0.00  0.00    +0.021 C 
ATOM      8  C   UNL     1      51.169  21.263  16.849  0.00  0.00    +0.009 C 
ATOM      9  C   UNL     1      48.953  17.884  19.665  0.00  0.00    +0.057 C 
ATOM     10  C   UNL     1      48.638  17.259  18.298  0.00  0.00    +0.059 C 
ATOM     11  C   UNL     1      47.799  16.013  18.500  0.00  0.00    +0.068 C 
ATOM     12  C   UNL     1      46.514  16.151  18.772  0.00  0.00    -0.219 C 
ATOM     15  C   UNL     1      45.957  17.556  18.908  0.00  0.00    +0.063 C 
ATOM     16  C   UNL     1      46.481  18.151  20.203  0.00  0.00    +0.177 C 
ATOM     19  C   UNL     1      47.850  18.834  20.058  0.00  0.00    -0.096 C 
ATOM     22  C   UNL     1      47.724  19.998  19.091  0.00  0.00    +0.033 C 
ATOM     23  C   UNL     1      49.073  20.726  18.976  0.00  0.00    +0.027 C 
ATOM     24  C   UNL     1      50.150  19.748  18.520  0.00  0.00    +0.003 C 
ENDROOT
BRANCH  12  13
ATOM     13  C   UNL     1      45.650  14.987  18.930  0.00  0.00    +0.475 C 
ATOM     14  O   UNL     1      45.134  14.756  20.003  0.00  0.00    -0.464 OA
ENDBRANCH  12  13
BRANCH  16  17
ATOM     17  O   UNL     1      46.599  17.129  21.197  0.00  0.00    -0.560 OA
ATOM     18  H   UNL     1      47.510  16.858  21.377  0.00  0.00    +0.381 HD
ENDBRANCH  16  17
BRANCH  19  20
ATOM     20  C   UNL     1      48.051  19.402  21.444  0.00  0.00    +0.456 C 
ATOM     21  O   UNL     1      47.126  19.914  22.027  0.00  0.00    -0.455 OA
ENDBRANCH  19  20
TORSDOF 3
ENDMDL
MODEL 4
REMARK VINA RESULT:      -5.1      1.583      2.200
REMARK  Name = ZINC95486151
REMARK  6 active torsions:
REMARK  status: ('A' for Active; 'I' for Inactive)
REMARK    1  A    between atoms: C1_1  and  C2_2
REMARK    2  A    between atoms: C6_6  and  C19_25
REMARK    3  A    between atoms: C6_6  and  C20_26
REMARK    4  A    between atoms: C10_11  and  C18_23
REMARK    5  A    between atoms: C14_16  and  C17_21
REMARK    6  A    between atoms: C16_18  and  O1_20
REMARK                            x       y       z     vdW  Elec       q    Type
REMARK                         _______ _______ _______ _____ _____    ______ ____
ROOT
ATOM      1  C   UNL     1      48.518  17.734  20.440  0.00  0.00    +0.025 C 
ATOM      2  C   UNL     1      47.986  18.707  19.388  0.00  0.00    -0.044 C 
ATOM      3  C   UNL     1      48.016  17.944  18.051  0.00  0.00    +0.022 C 
ATOM      4  C   UNL     1      49.456  17.503  17.769  0.00  0.00    +0.001 C 
ATOM      5  C   UNL     1      50.340  18.731  17.592  0.00  0.00    +0.010 C 
ATOM      6  C   UNL     1      50.260  19.704  18.766  0.00  0.00    -0.048 C 
ATOM      7  C   UNL     1      51.183  19.245  19.894  0.00  0.00    +0.021 C 
ATOM      8  C   UNL     1      50.830  21.051  18.246  0.00  0.00    +0.009 C 
ATOM      9  C   UNL     1      46.535  19.129  19.703  0.00  0.00    +0.057 C 
ATOM     10  C   UNL     1      46.028  19.855  18.449  0.00  0.00    +0.059 C 
ATOM     11  C   UNL     1      44.528  19.667  18.335  0.00  0.00    +0.068 C 
ATOM     12  C   UNL     1      43.738  20.384  19.113  0.00  0.00    -0.219 C 
ATOM     15  C   UNL     1      44.381  21.331  20.109  0.00  0.00    +0.063 C 
ATOM     16  C   UNL     1      45.015  20.501  21.212  0.00  0.00    +0.177 C 
ATOM     19  C   UNL     1      46.449  20.049  20.895  0.00  0.00    -0.096 C 
ATOM     22  C   UNL     1      47.333  21.273  20.739  0.00  0.00    +0.033 C 
ATOM     23  C   UNL     1      48.783  20.836  20.476  0.00  0.00    +0.027 C 
ATOM     24  C   UNL     1      48.839  19.959  19.231  0.00  0.00    +0.003 C 
ENDROOT
BRANCH  12  13
ATOM     13  C   UNL     1      42.287  20.277  19.014  0.00  0.00    +0.475 C 
ATOM     14  O   UNL     1      41.668  19.637  19.838  0.00  0.00    -0.464 OA
ENDBRANCH  12  13
BRANCH  16  17
ATOM     17  O   UNL     1      44.225  19.334  21.459  0.00  0.00    -0.560 OA
ATOM     18  H   UNL     1      44.414  18.904  22.304  0.00  0.00    +0.381 HD
ENDBRANCH  16  17
BRANCH  19  20
ATOM     20  C   UNL     1      46.836  19.356  22.181  0.00  0.00    +0.456 C 
ATOM     21  O   UNL     1      46.316  18.309  22.484  0.00  0.00    -0.455 OA
ENDBRANCH  19  20
TORSDOF 3
ENDMDL
MODEL 5
REMARK VINA RESULT:      -5.1      1.826      2.951
REMARK  Name = ZINC95486151
REMARK  6 active torsions:
REMARK  status: ('A' for Active; 'I' for Inactive)
REMARK    1  A    between atoms: C1_1  and  C2_2
REMARK    2  A    between atoms: C6_6  and  C19_25
REMARK    3  A    between atoms: C6_6  and  C20_26
REMARK    4  A    between atoms: C10_11  and  C18_23
REMARK    5  A    between atoms: C14_16  and  C17_21
REMARK    6  A    between atoms: C16_18  and  O1_20
REMARK                            x       y       z     vdW  Elec       q    Type
REMARK                         _______ _______ _______ _____ _____    ______ ____
ROOT
ATOM      1  C   UNL     1      48.090  19.955  21.995  0.00  0.00    +0.025 C 
ATOM      2  C   UNL     1      47.403  19.125  20.912  0.00  0.00    -0.044 C 
ATOM      3  C   UNL     1      47.502  17.659  21.374  0.00  0.00    +0.022 C 
ATOM      4  C   UNL     1      48.980  17.296  21.543  0.00  0.00    +0.001 C 
ATOM      5  C   UNL     1      49.683  17.378  20.194  0.00  0.00    +0.010 C 
ATOM      6  C   UNL     1      49.501  18.727  19.502  0.00  0.00    -0.048 C 
ATOM      7  C   UNL     1      50.508  19.739  20.049  0.00  0.00    +0.021 C 
ATOM      8  C   UNL     1      49.868  18.497  18.012  0.00  0.00    +0.009 C 
ATOM      9  C   UNL     1      45.917  19.516  20.769  0.00  0.00    +0.057 C 
ATOM     10  C   UNL     1      45.281  18.437  19.881  0.00  0.00    +0.059 C 
ATOM     11  C   UNL     1      43.819  18.284  20.249  0.00  0.00    +0.068 C 
ATOM     12  C   UNL     1      42.959  19.191  19.823  0.00  0.00    -0.219 C 
ATOM     15  C   UNL     1      43.492  20.362  19.019  0.00  0.00    +0.063 C 
ATOM     16  C   UNL     1      44.263  21.272  19.960  0.00  0.00    +0.177 C 
ATOM     19  C   UNL     1      45.736  20.872  20.134  0.00  0.00    -0.096 C 
ATOM     22  C   UNL     1      46.441  20.974  18.792  0.00  0.00    +0.033 C 
ATOM     23  C   UNL     1      47.930  20.630  18.960  0.00  0.00    +0.027 C 
ATOM     24  C   UNL     1      48.072  19.231  19.548  0.00  0.00    +0.003 C 
ENDROOT
BRANCH  12  13
ATOM     13  C   UNL     1      41.535  19.069  20.108  0.00  0.00    +0.475 C 
ATOM     14  O   UNL     1      41.123  19.256  21.234  0.00  0.00    -0.464 OA
ENDBRANCH  12  13
BRANCH  16  17
ATOM     17  O   UNL     1      43.648  21.271  21.251  0.00  0.00    -0.560 OA
ATOM     18  H   UNL     1      43.021  21.995  21.388  0.00  0.00    +0.381 HD
ENDBRANCH  16  17
BRANCH  19  20
ATOM     20  C   UNL     1      46.249  21.989  21.013  0.00  0.00    +0.456 C 
ATOM     21  O   UNL     1      45.839  23.115  20.861  0.00  0.00    -0.455 OA
ENDBRANCH  19  20
TORSDOF 3
ENDMDL
MODEL 6
REMARK VINA RESULT:      -5.1      2.481      4.825
REMARK  Name = ZINC95486151
REMARK  6 active torsions:
REMARK  status: ('A' for Active; 'I' for Inactive)
REMARK    1  A    between atoms: C1_1  and  C2_2
REMARK    2  A    between atoms: C6_6  and  C19_25
REMARK    3  A    between atoms: C6_6  and  C20_26
REMARK    4  A    between atoms: C10_11  and  C18_23
REMARK    5  A    between atoms: C14_16  and  C17_21
REMARK    6  A    between atoms: C16_18  and  O1_20
REMARK                            x       y       z     vdW  Elec       q    Type
REMARK                         _______ _______ _______ _____ _____    ______ ____
ROOT
ATOM      1  C   UNL     1      46.190  18.153  17.693  0.00  0.00    +0.025 C 
ATOM      2  C   UNL     1      46.668  18.478  19.107  0.00  0.00    -0.044 C 
ATOM      3  C   UNL     1      48.206  18.424  19.058  0.00  0.00    +0.022 C 
ATOM      4  C   UNL     1      48.634  17.026  18.600  0.00  0.00    +0.001 C 
ATOM      5  C   UNL     1      48.193  15.994  19.629  0.00  0.00    +0.010 C 
ATOM      6  C   UNL     1      46.700  16.060  19.945  0.00  0.00    -0.048 C 
ATOM      7  C   UNL     1      45.904  15.296  18.888  0.00  0.00    +0.021 C 
ATOM      8  C   UNL     1      46.510  15.296  21.282  0.00  0.00    +0.009 C 
ATOM      9  C   UNL     1      46.220  19.892  19.536  0.00  0.00    +0.057 C 
ATOM     10  C   UNL     1      46.993  20.205  20.825  0.00  0.00    +0.059 C 
ATOM     11  C   UNL     1      47.211  21.701  20.927  0.00  0.00    +0.068 C 
ATOM     12  C   UNL     1      46.203  22.466  21.303  0.00  0.00    -0.219 C 
ATOM     15  C   UNL     1      44.865  21.804  21.577  0.00  0.00    +0.063 C 
ATOM     16  C   UNL     1      44.273  21.365  20.249  0.00  0.00    +0.177 C 
ATOM     19  C   UNL     1      44.737  19.972  19.797  0.00  0.00    -0.096 C 
ATOM     22  C   UNL     1      44.278  18.941  20.814  0.00  0.00    +0.033 C 
ATOM     23  C   UNL     1      44.688  17.535  20.348  0.00  0.00    +0.027 C 
ATOM     24  C   UNL     1      46.198  17.476  20.153  0.00  0.00    +0.003 C 
ENDROOT
BRANCH  12  13
ATOM     13  C   UNL     1      46.369  23.905  21.462  0.00  0.00    +0.475 C 
ATOM     14  O   UNL     1      45.713  24.670  20.788  0.00  0.00    -0.464 OA
ENDBRANCH  12  13
BRANCH  16  17
ATOM     17  O   UNL     1      44.622  22.302  19.226  0.00  0.00    -0.560 OA
ATOM     18  H   UNL     1      44.791  23.196  19.554  0.00  0.00    +0.381 HD
ENDBRANCH  16  17
BRANCH  19  20
ATOM     20  C   UNL     1      43.923  19.777  18.539  0.00  0.00    +0.456 C 
ATOM     21  O   UNL     1      42.787  20.182  18.486  0.00  0.00    -0.455 OA
ENDBRANCH  19  20
TORSDOF 3
ENDMDL
MODEL 7
REMARK VINA RESULT:      -5.1      2.274      6.078
REMARK  Name = ZINC95486151
REMARK  6 active torsions:
REMARK  status: ('A' for Active; 'I' for Inactive)
REMARK    1  A    between atoms: C1_1  and  C2_2
REMARK    2  A    between atoms: C6_6  and  C19_25
REMARK    3  A    between atoms: C6_6  and  C20_26
REMARK    4  A    between atoms: C10_11  and  C18_23
REMARK    5  A    between atoms: C14_16  and  C17_21
REMARK    6  A    between atoms: C16_18  and  O1_20
REMARK                            x       y       z     vdW  Elec       q    Type
REMARK                         _______ _______ _______ _____ _____    ______ ____
ROOT
ATOM      1  C   UNL     1      46.966  19.752  22.293  0.00  0.00    +0.025 C 
ATOM      2  C   UNL     1      47.116  20.351  20.896  0.00  0.00    -0.044 C 
ATOM      3  C   UNL     1      47.188  21.877  21.094  0.00  0.00    +0.022 C 
ATOM      4  C   UNL     1      45.909  22.341  21.799  0.00  0.00    +0.001 C 
ATOM      5  C   UNL     1      44.707  22.073  20.904  0.00  0.00    +0.010 C 
ATOM      6  C   UNL     1      44.611  20.619  20.446  0.00  0.00    -0.048 C 
ATOM      7  C   UNL     1      43.950  19.768  21.531  0.00  0.00    +0.021 C 
ATOM      8  C   UNL     1      43.646  20.616  19.230  0.00  0.00    +0.009 C 
ATOM      9  C   UNL     1      48.412  19.863  20.216  0.00  0.00    +0.057 C 
ATOM     10  C   UNL     1      48.591  20.742  18.970  0.00  0.00    +0.059 C 
ATOM     11  C   UNL     1      50.068  20.877  18.660  0.00  0.00    +0.068 C 
ATOM     12  C   UNL     1      50.689  19.867  18.079  0.00  0.00    -0.219 C 
ATOM     15  C   UNL     1      49.894  18.608  17.789  0.00  0.00    +0.063 C 
ATOM     16  C   UNL     1      49.611  17.911  19.109  0.00  0.00    +0.177 C 
ATOM     19  C   UNL     1      48.339  18.412  19.810  0.00  0.00    -0.096 C 
ATOM     22  C   UNL     1      47.138  18.125  18.926  0.00  0.00    +0.033 C 
ATOM     23  C   UNL     1      45.850  18.571  19.638  0.00  0.00    +0.027 C 
ATOM     24  C   UNL     1      45.937  20.055  19.978  0.00  0.00    +0.003 C 
ENDROOT
BRANCH  12  13
ATOM     13  C   UNL     1      52.098  19.959  17.717  0.00  0.00    +0.475 C 
ATOM     14  O   UNL     1      52.916  19.260  18.278  0.00  0.00    -0.464 OA
ENDBRANCH  12  13
BRANCH  16  17
ATOM     17  O   UNL     1      50.712  18.095  20.003  0.00  0.00    -0.560 OA
ATOM     18  H   UNL     1      50.471  18.049  20.938  0.00  0.00    +0.381 HD
ENDBRANCH  16  17
BRANCH  19  20
ATOM     20  C   UNL     1      48.269  17.487  21.003  0.00  0.00    +0.456 C 
ATOM     21  O   UNL     1      48.518  16.313  20.873  0.00  0.00    -0.455 OA
ENDBRANCH  19  20
TORSDOF 3
ENDMDL
MODEL 8
REMARK VINA RESULT:      -5.0      2.463      3.713
REMARK  Name = ZINC95486151
REMARK  6 active torsions:
REMARK  status: ('A' for Active; 'I' for Inactive)
REMARK    1  A    between atoms: C1_1  and  C2_2
REMARK    2  A    between atoms: C6_6  and  C19_25
REMARK    3  A    between atoms: C6_6  and  C20_26
REMARK    4  A    between atoms: C10_11  and  C18_23
REMARK    5  A    between atoms: C14_16  and  C17_21
REMARK    6  A    between atoms: C16_18  and  O1_20
REMARK                            x       y       z     vdW  Elec       q    Type
REMARK                         _______ _______ _______ _____ _____    ______ ____
ROOT
ATOM      1  C   UNL     1      45.458  16.635  19.099  0.00  0.00    +0.025 C 
ATOM      2  C   UNL     1      46.311  17.892  18.937  0.00  0.00    -0.044 C 
ATOM      3  C   UNL     1      46.575  18.035  17.427  0.00  0.00    +0.022 C 
ATOM      4  C   UNL     1      47.288  16.773  16.931  0.00  0.00    +0.001 C 
ATOM      5  C   UNL     1      48.650  16.660  17.604  0.00  0.00    +0.010 C 
ATOM      6  C   UNL     1      48.574  16.712  19.128  0.00  0.00    -0.048 C 
ATOM      7  C   UNL     1      48.222  15.333  19.685  0.00  0.00    +0.021 C 
ATOM      8  C   UNL     1      50.010  17.036  19.618  0.00  0.00    +0.009 C 
ATOM      9  C   UNL     1      45.562  19.143  19.445  0.00  0.00    +0.057 C 
ATOM     10  C   UNL     1      46.385  20.348  18.969  0.00  0.00    +0.059 C 
ATOM     11  C   UNL     1      45.462  21.530  18.753  0.00  0.00    +0.068 C 
ATOM     12  C   UNL     1      45.028  22.198  19.808  0.00  0.00    -0.219 C 
ATOM     15  C   UNL     1      45.451  21.716  21.183  0.00  0.00    +0.063 C 
ATOM     16  C   UNL     1      44.718  20.419  21.477  0.00  0.00    +0.177 C 
ATOM     19  C   UNL     1      45.439  19.170  20.948  0.00  0.00    -0.096 C 
ATOM     22  C   UNL     1      46.788  19.046  21.634  0.00  0.00    +0.033 C 
ATOM     23  C   UNL     1      47.500  17.771  21.156  0.00  0.00    +0.027 C 
ATOM     24  C   UNL     1      47.659  17.808  19.640  0.00  0.00    +0.003 C 
ENDROOT
BRANCH  12  13
ATOM     13  C   UNL     1      44.176  23.370  19.657  0.00  0.00    +0.475 C 
ATOM     14  O   UNL     1      42.979  23.236  19.507  0.00  0.00    -0.464 OA
ENDBRANCH  12  13
BRANCH  16  17
ATOM     17  O   UNL     1      43.411  20.455  20.898  0.00  0.00    -0.560 OA
ATOM     18  H   UNL     1      43.080  19.590  20.620  0.00  0.00    +0.381 HD
ENDBRANCH  16  17
BRANCH  19  20
ATOM     20  C   UNL     1      44.550  18.065  21.469  0.00  0.00    +0.456 C 
ATOM     21  O   UNL     1      43.947  18.213  22.505  0.00  0.00    -0.455 OA
ENDBRANCH  19  20
TORSDOF 3
ENDMDL
MODEL 9
REMARK VINA RESULT:      -5.0      3.035      4.158
REMARK  Name = ZINC95486151
REMARK  6 active torsions:
REMARK  status: ('A' for Active; 'I' for Inactive)
REMARK    1  A    between atoms: C1_1  and  C2_2
REMARK    2  A    between atoms: C6_6  and  C19_25
REMARK    3  A    between atoms: C6_6  and  C20_26
REMARK    4  A    between atoms: C10_11  and  C18_23
REMARK    5  A    between atoms: C14_16  and  C17_21
REMARK    6  A    between atoms: C16_18  and  O1_20
REMARK                            x       y       z     vdW  Elec       q    Type
REMARK                         _______ _______ _______ _____ _____    ______ ____
ROOT
ATOM      1  C   UNL     1      45.570  15.341  19.421  0.00  0.00    +0.025 C 
ATOM      2  C   UNL     1      45.983  16.780  19.114  0.00  0.00    -0.044 C 
ATOM      3  C   UNL     1      46.257  16.829  17.599  0.00  0.00    +0.022 C 
ATOM      4  C   UNL     1      47.358  15.818  17.266  0.00  0.00    +0.001 C 
ATOM      5  C   UNL     1      48.652  16.226  17.957  0.00  0.00    +0.010 C 
ATOM      6  C   UNL     1      48.493  16.422  19.464  0.00  0.00    -0.048 C 
ATOM      7  C   UNL     1      48.575  15.075  20.181  0.00  0.00    +0.021 C 
ATOM      8  C   UNL     1      49.727  17.245  19.921  0.00  0.00    +0.009 C 
ATOM      9  C   UNL     1      44.852  17.771  19.461  0.00  0.00    +0.057 C 
ATOM     10  C   UNL     1      45.268  19.115  18.848  0.00  0.00    +0.059 C 
ATOM     11  C   UNL     1      44.026  19.905  18.484  0.00  0.00    +0.068 C 
ATOM     12  C   UNL     1      43.355  20.511  19.447  0.00  0.00    -0.219 C 
ATOM     15  C   UNL     1      43.845  20.349  20.874  0.00  0.00    +0.063 C 
ATOM     16  C   UNL     1      43.551  18.926  21.317  0.00  0.00    +0.177 C 
ATOM     19  C   UNL     1      44.658  17.926  20.949  0.00  0.00    -0.096 C 
ATOM     22  C   UNL     1      45.942  18.322  21.655  0.00  0.00    +0.033 C 
ATOM     23  C   UNL     1      47.045  17.299  21.340  0.00  0.00    +0.027 C 
ATOM     24  C   UNL     1      47.254  17.214  19.832  0.00  0.00    +0.003 C 
ENDROOT
BRANCH  12  13
ATOM     13  C   UNL     1      42.180  21.321  19.149  0.00  0.00    +0.475 C 
ATOM     14  O   UNL     1      41.069  20.860  19.306  0.00  0.00    -0.464 OA
ENDBRANCH  12  13
BRANCH  16  17
ATOM     17  O   UNL     1      42.329  18.474  20.728  0.00  0.00    -0.560 OA
ATOM     18  H   UNL     1      41.547  18.959  21.024  0.00  0.00    +0.381 HD
ENDBRANCH  16  17
BRANCH  19  20
ATOM     20  C   UNL     1      44.145  16.659  21.593  0.00  0.00    +0.456 C 
ATOM     21  O   UNL     1      43.355  16.722  22.505  0.00  0.00    -0.455 OA
ENDBRANCH  19  20
TORSDOF 3
ENDMDL
