MODEL 1
REMARK VINA RESULT:      -6.5      0.000      0.000
REMARK  Name = ZINC95486088
REMARK  10 active torsions:
REMARK  status: ('A' for Active; 'I' for Inactive)
REMARK    1  A    between atoms: C1_1  and  C2_2
REMARK    2  A    between atoms: C5_5  and  O2_36
REMARK    3  A    between atoms: C6_7  and  C29_34
REMARK    4  A    between atoms: C6_7  and  C30_35
REMARK    5  A    between atoms: C10_12  and  C28_33
REMARK    6  A    between atoms: C14_17  and  C27_32
REMARK    7  A    between atoms: C18_21  and  C26_30
REMARK    8  A    between atoms: C21_25  and  C24_28
REMARK    9  A    between atoms: C21_25  and  C25_29
REMARK   10  A    between atoms: C26_30  and  O1_31
REMARK                            x       y       z     vdW  Elec       q    Type
REMARK                         _______ _______ _______ _____ _____    ______ ____
ROOT
ATOM      1  C   UNL     1      46.775  19.186  20.969  0.00  0.00    +0.027 C 
ATOM      2  C   UNL     1      46.090  18.661  19.719  0.00  0.00    -0.036 C 
ATOM      3  C   UNL     1      46.187  19.749  18.634  0.00  0.00    +0.019 C 
ATOM      4  C   UNL     1      45.398  20.979  19.074  0.00  0.00    -0.018 C 
ATOM      5  C   UNL     1      43.923  20.634  19.226  0.00  0.00    +0.166 C 
ATOM      8  C   UNL     1      43.701  19.484  20.210  0.00  0.00    -0.038 C 
ATOM      9  C   UNL     1      43.811  19.993  21.645  0.00  0.00    +0.034 C 
ATOM     10  C   UNL     1      42.240  19.014  20.003  0.00  0.00    +0.018 C 
ATOM     11  C   UNL     1      46.764  17.398  19.173  0.00  0.00    +0.002 C 
ATOM     12  C   UNL     1      48.202  17.603  18.762  0.00  0.00    +0.013 C 
ATOM     13  C   UNL     1      48.834  16.377  18.118  0.00  0.00    +0.012 C 
ATOM     14  C   UNL     1      47.894  15.172  18.009  0.00  0.00    -0.001 C 
ATOM     15  C   UNL     1      46.889  15.440  16.892  0.00  0.00    +0.024 C 
ATOM     16  C   UNL     1      47.197  14.969  19.318  0.00  0.00    -0.096 C 
ATOM     17  C   UNL     1      47.098  13.813  19.908  0.00  0.00    -0.055 C 
ATOM     18  C   UNL     1      47.746  12.552  19.438  0.00  0.00    +0.066 C 
ATOM     19  C   UNL     1      48.068  12.617  17.939  0.00  0.00    -0.037 C 
ATOM     23  C   UNL     1      49.093  11.501  17.657  0.00  0.00    +0.024 C 
ATOM     24  C   UNL     1      49.558  11.536  16.209  0.00  0.00    +0.012 C 
ATOM     25  C   UNL     1      50.141  12.893  15.830  0.00  0.00    -0.064 C 
ATOM     26  C   UNL     1      51.464  13.130  16.559  0.00  0.00    +0.021 C 
ATOM     27  C   UNL     1      50.409  12.908  14.316  0.00  0.00    +0.015 C 
ATOM     28  C   UNL     1      49.149  14.012  16.155  0.00  0.00    +0.026 C 
ATOM     29  C   UNL     1      48.719  13.950  17.615  0.00  0.00    +0.008 C 
ATOM     30  C   UNL     1      46.593  16.168  20.047  0.00  0.00    -0.003 C 
ATOM     31  C   UNL     1      47.345  16.268  21.386  0.00  0.00    +0.028 C 
ATOM     32  C   UNL     1      45.111  15.911  20.317  0.00  0.00    +0.018 C 
ATOM     33  C   UNL     1      44.472  17.171  20.922  0.00  0.00    +0.018 C 
ATOM     34  C   UNL     1      44.618  18.318  19.925  0.00  0.00    -0.003 C 
ENDROOT
BRANCH   5   6
ATOM      6  O   UNL     1      43.210  21.788  19.687  0.00  0.00    -0.564 OA
ATOM      7  H   UNL     1      42.615  21.613  20.429  0.00  0.00    +0.375 HD
ENDBRANCH   5   6
BRANCH  19  20
ATOM     20  C   UNL     1      46.804  12.336  17.133  0.00  0.00    +0.182 C 
BRANCH  20  21
ATOM     21  O   UNL     1      46.389  10.987  17.352  0.00  0.00    -0.570 OA
ATOM     22  H   UNL     1      46.739  10.595  18.163  0.00  0.00    +0.377 HD
ENDBRANCH  20  21
ENDBRANCH  19  20
TORSDOF 3
ENDMDL
MODEL 2
REMARK VINA RESULT:      -6.1      1.991      8.148
REMARK  Name = ZINC95486088
REMARK  10 active torsions:
REMARK  status: ('A' for Active; 'I' for Inactive)
REMARK    1  A    between atoms: C1_1  and  C2_2
REMARK    2  A    between atoms: C5_5  and  O2_36
REMARK    3  A    between atoms: C6_7  and  C29_34
REMARK    4  A    between atoms: C6_7  and  C30_35
REMARK    5  A    between atoms: C10_12  and  C28_33
REMARK    6  A    between atoms: C14_17  and  C27_32
REMARK    7  A    between atoms: C18_21  and  C26_30
REMARK    8  A    between atoms: C21_25  and  C24_28
REMARK    9  A    between atoms: C21_25  and  C25_29
REMARK   10  A    between atoms: C26_30  and  O1_31
REMARK                            x       y       z     vdW  Elec       q    Type
REMARK                         _______ _______ _______ _____ _____    ______ ____
ROOT
ATOM      1  C   UNL     1      48.822  12.132  17.444  0.00  0.00    +0.027 C 
ATOM      2  C   UNL     1      48.727  13.361  16.556  0.00  0.00    -0.036 C 
ATOM      3  C   UNL     1      47.794  13.023  15.379  0.00  0.00    +0.019 C 
ATOM      4  C   UNL     1      48.425  11.925  14.528  0.00  0.00    -0.018 C 
ATOM      5  C   UNL     1      49.739  12.409  13.929  0.00  0.00    +0.166 C 
ATOM      8  C   UNL     1      50.722  12.876  15.005  0.00  0.00    -0.038 C 
ATOM      9  C   UNL     1      51.380  11.670  15.673  0.00  0.00    +0.034 C 
ATOM     10  C   UNL     1      51.838  13.652  14.262  0.00  0.00    +0.018 C 
ATOM     11  C   UNL     1      48.130  14.565  17.292  0.00  0.00    +0.002 C 
ATOM     12  C   UNL     1      46.720  14.341  17.786  0.00  0.00    +0.013 C 
ATOM     13  C   UNL     1      46.091  15.575  18.417  0.00  0.00    +0.012 C 
ATOM     14  C   UNL     1      47.004  16.805  18.433  0.00  0.00    -0.001 C 
ATOM     15  C   UNL     1      47.080  17.371  17.016  0.00  0.00    +0.024 C 
ATOM     16  C   UNL     1      48.361  16.408  18.922  0.00  0.00    -0.096 C 
ATOM     17  C   UNL     1      49.017  17.066  19.834  0.00  0.00    -0.055 C 
ATOM     18  C   UNL     1      48.485  18.233  20.600  0.00  0.00    +0.066 C 
ATOM     19  C   UNL     1      47.337  18.916  19.846  0.00  0.00    -0.037 C 
ATOM     23  C   UNL     1      46.592  19.792  20.871  0.00  0.00    +0.024 C 
ATOM     24  C   UNL     1      45.367  20.446  20.248  0.00  0.00    +0.012 C 
ATOM     25  C   UNL     1      44.416  19.417  19.645  0.00  0.00    -0.064 C 
ATOM     26  C   UNL     1      43.762  18.582  20.746  0.00  0.00    +0.021 C 
ATOM     27  C   UNL     1      43.312  20.161  18.875  0.00  0.00    +0.015 C 
ATOM     28  C   UNL     1      45.161  18.511  18.662  0.00  0.00    +0.026 C 
ATOM     29  C   UNL     1      46.370  17.866  19.329  0.00  0.00    +0.008 C 
ATOM     30  C   UNL     1      49.023  15.146  18.373  0.00  0.00    -0.003 C 
ATOM     31  C   UNL     1      49.203  14.207  19.579  0.00  0.00    +0.028 C 
ATOM     32  C   UNL     1      50.395  15.496  17.795  0.00  0.00    +0.018 C 
ATOM     33  C   UNL     1      51.000  14.257  17.118  0.00  0.00    +0.018 C 
ATOM     34  C   UNL     1      50.069  13.814  15.991  0.00  0.00    -0.003 C 
ENDROOT
BRANCH   5   6
ATOM      6  O   UNL     1      50.338  11.348  13.176  0.00  0.00    -0.564 OA
ATOM      7  H   UNL     1      50.609  11.602  12.284  0.00  0.00    +0.375 HD
ENDBRANCH   5   6
BRANCH  19  20
ATOM     20  C   UNL     1      47.908  19.818  18.756  0.00  0.00    +0.182 C 
BRANCH  20  21
ATOM     21  O   UNL     1      48.809  20.760  19.340  0.00  0.00    -0.570 OA
ATOM     22  H   UNL     1      48.377  21.434  19.881  0.00  0.00    +0.377 HD
ENDBRANCH  20  21
ENDBRANCH  19  20
TORSDOF 3
ENDMDL
MODEL 3
REMARK VINA RESULT:      -5.9      1.733      2.574
REMARK  Name = ZINC95486088
REMARK  10 active torsions:
REMARK  status: ('A' for Active; 'I' for Inactive)
REMARK    1  A    between atoms: C1_1  and  C2_2
REMARK    2  A    between atoms: C5_5  and  O2_36
REMARK    3  A    between atoms: C6_7  and  C29_34
REMARK    4  A    between atoms: C6_7  and  C30_35
REMARK    5  A    between atoms: C10_12  and  C28_33
REMARK    6  A    between atoms: C14_17  and  C27_32
REMARK    7  A    between atoms: C18_21  and  C26_30
REMARK    8  A    between atoms: C21_25  and  C24_28
REMARK    9  A    between atoms: C21_25  and  C25_29
REMARK   10  A    between atoms: C26_30  and  O1_31
REMARK                            x       y       z     vdW  Elec       q    Type
REMARK                         _______ _______ _______ _____ _____    ______ ____
ROOT
ATOM      1  C   UNL     1      47.105  20.454  18.376  0.00  0.00    +0.027 C 
ATOM      2  C   UNL     1      46.159  19.427  18.976  0.00  0.00    -0.036 C 
ATOM      3  C   UNL     1      44.766  19.653  18.360  0.00  0.00    +0.019 C 
ATOM      4  C   UNL     1      44.238  21.022  18.778  0.00  0.00    -0.018 C 
ATOM      5  C   UNL     1      44.071  21.085  20.291  0.00  0.00    +0.166 C 
ATOM      8  C   UNL     1      45.376  20.772  21.026  0.00  0.00    -0.038 C 
ATOM      9  C   UNL     1      46.297  21.990  20.999  0.00  0.00    +0.034 C 
ATOM     10  C   UNL     1      44.990  20.525  22.505  0.00  0.00    +0.018 C 
ATOM     11  C   UNL     1      46.581  17.990  18.657  0.00  0.00    +0.002 C 
ATOM     12  C   UNL     1      46.602  17.673  17.181  0.00  0.00    +0.013 C 
ATOM     13  C   UNL     1      46.915  16.215  16.874  0.00  0.00    +0.012 C 
ATOM     14  C   UNL     1      47.148  15.349  18.116  0.00  0.00    -0.001 C 
ATOM     15  C   UNL     1      45.801  15.088  18.785  0.00  0.00    +0.024 C 
ATOM     16  C   UNL     1      48.077  16.062  19.048  0.00  0.00    -0.096 C 
ATOM     17  C   UNL     1      49.109  15.497  19.605  0.00  0.00    -0.055 C 
ATOM     18  C   UNL     1      49.584  14.109  19.322  0.00  0.00    +0.066 C 
ATOM     19  C   UNL     1      48.455  13.240  18.753  0.00  0.00    -0.037 C 
ATOM     23  C   UNL     1      49.124  12.013  18.105  0.00  0.00    +0.024 C 
ATOM     24  C   UNL     1      48.096  11.125  17.420  0.00  0.00    +0.012 C 
ATOM     25  C   UNL     1      47.282  11.891  16.381  0.00  0.00    -0.064 C 
ATOM     26  C   UNL     1      48.161  12.277  15.191  0.00  0.00    +0.021 C 
ATOM     27  C   UNL     1      46.149  10.982  15.876  0.00  0.00    +0.015 C 
ATOM     28  C   UNL     1      46.656  13.139  17.006  0.00  0.00    +0.026 C 
ATOM     29  C   UNL     1      47.719  14.006  17.669  0.00  0.00    +0.008 C 
ATOM     30  C   UNL     1      47.855  17.542  19.351  0.00  0.00    -0.003 C 
ATOM     31  C   UNL     1      49.112  18.269  18.839  0.00  0.00    +0.028 C 
ATOM     32  C   UNL     1      47.735  17.744  20.862  0.00  0.00    +0.018 C 
ATOM     33  C   UNL     1      47.372  19.207  21.158  0.00  0.00    +0.018 C 
ATOM     34  C   UNL     1      46.034  19.522  20.493  0.00  0.00    -0.003 C 
ENDROOT
BRANCH   5   6
ATOM      6  O   UNL     1      43.624  22.392  20.667  0.00  0.00    -0.564 OA
ATOM      7  H   UNL     1      42.722  22.415  21.016  0.00  0.00    +0.375 HD
ENDBRANCH   5   6
BRANCH  19  20
ATOM     20  C   UNL     1      47.555  12.764  19.889  0.00  0.00    +0.182 C 
BRANCH  20  21
ATOM     21  O   UNL     1      48.361  12.275  20.962  0.00  0.00    -0.570 OA
ATOM     22  H   UNL     1      49.283  12.114  20.720  0.00  0.00    +0.377 HD
ENDBRANCH  20  21
ENDBRANCH  19  20
TORSDOF 3
ENDMDL
MODEL 4
REMARK VINA RESULT:      -5.9      2.098      3.797
REMARK  Name = ZINC95486088
REMARK  10 active torsions:
REMARK  status: ('A' for Active; 'I' for Inactive)
REMARK    1  A    between atoms: C1_1  and  C2_2
REMARK    2  A    between atoms: C5_5  and  O2_36
REMARK    3  A    between atoms: C6_7  and  C29_34
REMARK    4  A    between atoms: C6_7  and  C30_35
REMARK    5  A    between atoms: C10_12  and  C28_33
REMARK    6  A    between atoms: C14_17  and  C27_32
REMARK    7  A    between atoms: C18_21  and  C26_30
REMARK    8  A    between atoms: C21_25  and  C24_28
REMARK    9  A    between atoms: C21_25  and  C25_29
REMARK   10  A    between atoms: C26_30  and  O1_31
REMARK                            x       y       z     vdW  Elec       q    Type
REMARK                         _______ _______ _______ _____ _____    ______ ____
ROOT
ATOM      1  C   UNL     1      44.479  19.318  18.963  0.00  0.00    +0.027 C 
ATOM      2  C   UNL     1      45.486  19.020  20.060  0.00  0.00    -0.036 C 
ATOM      3  C   UNL     1      44.705  18.748  21.358  0.00  0.00    +0.019 C 
ATOM      4  C   UNL     1      43.966  20.014  21.784  0.00  0.00    -0.018 C 
ATOM      5  C   UNL     1      44.959  21.127  22.088  0.00  0.00    +0.166 C 
ATOM      8  C   UNL     1      45.873  21.422  20.898  0.00  0.00    -0.038 C 
ATOM      9  C   UNL     1      45.130  22.262  19.861  0.00  0.00    +0.034 C 
ATOM     10  C   UNL     1      47.030  22.295  21.446  0.00  0.00    +0.018 C 
ATOM     11  C   UNL     1      46.328  17.777  19.755  0.00  0.00    +0.002 C 
ATOM     12  C   UNL     1      45.518  16.509  19.624  0.00  0.00    +0.013 C 
ATOM     13  C   UNL     1      46.367  15.259  19.431  0.00  0.00    +0.012 C 
ATOM     14  C   UNL     1      47.876  15.525  19.405  0.00  0.00    -0.001 C 
ATOM     15  C   UNL     1      48.341  15.817  20.830  0.00  0.00    +0.024 C 
ATOM     16  C   UNL     1      48.158  16.685  18.503  0.00  0.00    -0.096 C 
ATOM     17  C   UNL     1      49.086  16.676  17.591  0.00  0.00    -0.055 C 
ATOM     18  C   UNL     1      49.926  15.493  17.233  0.00  0.00    +0.066 C 
ATOM     19  C   UNL     1      49.980  14.480  18.383  0.00  0.00    -0.037 C 
ATOM     23  C   UNL     1      50.477  13.152  17.781  0.00  0.00    +0.024 C 
ATOM     24  C   UNL     1      50.476  12.043  18.822  0.00  0.00    +0.012 C 
ATOM     25  C   UNL     1      49.100  11.852  19.452  0.00  0.00    -0.064 C 
ATOM     26  C   UNL     1      48.117  11.281  18.429  0.00  0.00    +0.021 C 
ATOM     27  C   UNL     1      49.225  10.856  20.617  0.00  0.00    +0.015 C 
ATOM     28  C   UNL     1      48.577  13.179  20.007  0.00  0.00    +0.026 C 
ATOM     29  C   UNL     1      48.581  14.257  18.931  0.00  0.00    +0.008 C 
ATOM     30  C   UNL     1      47.304  17.947  18.604  0.00  0.00    -0.003 C 
ATOM     31  C   UNL     1      46.610  18.095  17.238  0.00  0.00    +0.028 C 
ATOM     32  C   UNL     1      48.204  19.158  18.848  0.00  0.00    +0.018 C 
ATOM     33  C   UNL     1      47.338  20.404  19.090  0.00  0.00    +0.018 C 
ATOM     34  C   UNL     1      46.466  20.160  20.319  0.00  0.00    -0.003 C 
ENDROOT
BRANCH   5   6
ATOM      6  O   UNL     1      44.245  22.319  22.437  0.00  0.00    -0.564 OA
ATOM      7  H   UNL     1      43.292  22.192  22.540  0.00  0.00    +0.375 HD
ENDBRANCH   5   6
BRANCH  19  20
ATOM     20  C   UNL     1      50.984  14.949  19.430  0.00  0.00    +0.182 C 
BRANCH  20  21
ATOM     21  O   UNL     1      52.232  15.238  18.798  0.00  0.00    -0.570 OA
ATOM     22  H   UNL     1      52.189  15.956  18.153  0.00  0.00    +0.377 HD
ENDBRANCH  20  21
ENDBRANCH  19  20
TORSDOF 3
ENDMDL
MODEL 5
REMARK VINA RESULT:      -5.8      3.522      5.399
REMARK  Name = ZINC95486088
REMARK  10 active torsions:
REMARK  status: ('A' for Active; 'I' for Inactive)
REMARK    1  A    between atoms: C1_1  and  C2_2
REMARK    2  A    between atoms: C5_5  and  O2_36
REMARK    3  A    between atoms: C6_7  and  C29_34
REMARK    4  A    between atoms: C6_7  and  C30_35
REMARK    5  A    between atoms: C10_12  and  C28_33
REMARK    6  A    between atoms: C14_17  and  C27_32
REMARK    7  A    between atoms: C18_21  and  C26_30
REMARK    8  A    between atoms: C21_25  and  C24_28
REMARK    9  A    between atoms: C21_25  and  C25_29
REMARK   10  A    between atoms: C26_30  and  O1_31
REMARK                            x       y       z     vdW  Elec       q    Type
REMARK                         _______ _______ _______ _____ _____    ______ ____
ROOT
ATOM      1  C   UNL     1      50.105  20.703  18.236  0.00  0.00    +0.027 C 
ATOM      2  C   UNL     1      50.132  19.591  19.272  0.00  0.00    -0.036 C 
ATOM      3  C   UNL     1      48.978  19.838  20.260  0.00  0.00    +0.019 C 
ATOM      4  C   UNL     1      49.225  21.140  21.018  0.00  0.00    -0.018 C 
ATOM      5  C   UNL     1      50.501  21.037  21.842  0.00  0.00    +0.166 C 
ATOM      8  C   UNL     1      51.715  20.688  20.979  0.00  0.00    -0.038 C 
ATOM      9  C   UNL     1      52.203  21.929  20.234  0.00  0.00    +0.034 C 
ATOM     10  C   UNL     1      52.840  20.275  21.961  0.00  0.00    +0.018 C 
ATOM     11  C   UNL     1      49.922  18.209  18.647  0.00  0.00    +0.002 C 
ATOM     12  C   UNL     1      48.591  18.050  17.951  0.00  0.00    +0.013 C 
ATOM     13  C   UNL     1      48.340  16.642  17.428  0.00  0.00    +0.012 C 
ATOM     14  C   UNL     1      49.481  15.658  17.705  0.00  0.00    -0.001 C 
ATOM     15  C   UNL     1      49.451  15.287  19.186  0.00  0.00    +0.024 C 
ATOM     16  C   UNL     1      50.784  16.296  17.341  0.00  0.00    -0.096 C 
ATOM     17  C   UNL     1      51.697  15.707  16.624  0.00  0.00    -0.055 C 
ATOM     18  C   UNL     1      51.546  14.371  15.972  0.00  0.00    +0.066 C 
ATOM     19  C   UNL     1      50.463  13.533  16.664  0.00  0.00    -0.037 C 
ATOM     23  C   UNL     1      50.086  12.402  15.689  0.00  0.00    +0.024 C 
ATOM     24  C   UNL     1      48.944  11.561  16.238  0.00  0.00    +0.012 C 
ATOM     25  C   UNL     1      47.717  12.407  16.561  0.00  0.00    -0.064 C 
ATOM     26  C   UNL     1      47.082  12.943  15.277  0.00  0.00    +0.021 C 
ATOM     27  C   UNL     1      46.685  11.523  17.283  0.00  0.00    +0.015 C 
ATOM     28  C   UNL     1      48.093  13.564  17.490  0.00  0.00    +0.026 C 
ATOM     29  C   UNL     1      49.230  14.388  16.898  0.00  0.00    +0.008 C 
ATOM     30  C   UNL     1      51.075  17.729  17.783  0.00  0.00    -0.003 C 
ATOM     31  C   UNL     1      51.240  18.543  16.487  0.00  0.00    +0.028 C 
ATOM     32  C   UNL     1      52.382  17.767  18.575  0.00  0.00    +0.018 C 
ATOM     33  C   UNL     1      52.601  19.179  19.139  0.00  0.00    +0.018 C 
ATOM     34  C   UNL     1      51.435  19.522  20.062  0.00  0.00    -0.003 C 
ENDROOT
BRANCH   5   6
ATOM      6  O   UNL     1      50.741  22.284  22.505  0.00  0.00    -0.564 OA
ATOM      7  H   UNL     1      50.522  22.278  23.447  0.00  0.00    +0.375 HD
ENDBRANCH   5   6
BRANCH  19  20
ATOM     20  C   UNL     1      51.032  12.913  17.936  0.00  0.00    +0.182 C 
BRANCH  20  21
ATOM     21  O   UNL     1      52.315  12.349  17.658  0.00  0.00    -0.570 OA
ATOM     22  H   UNL     1      52.486  11.516  18.118  0.00  0.00    +0.377 HD
ENDBRANCH  20  21
ENDBRANCH  19  20
TORSDOF 3
ENDMDL
MODEL 6
REMARK VINA RESULT:      -5.6      3.493      8.072
REMARK  Name = ZINC95486088
REMARK  10 active torsions:
REMARK  status: ('A' for Active; 'I' for Inactive)
REMARK    1  A    between atoms: C1_1  and  C2_2
REMARK    2  A    between atoms: C5_5  and  O2_36
REMARK    3  A    between atoms: C6_7  and  C29_34
REMARK    4  A    between atoms: C6_7  and  C30_35
REMARK    5  A    between atoms: C10_12  and  C28_33
REMARK    6  A    between atoms: C14_17  and  C27_32
REMARK    7  A    between atoms: C18_21  and  C26_30
REMARK    8  A    between atoms: C21_25  and  C24_28
REMARK    9  A    between atoms: C21_25  and  C25_29
REMARK   10  A    between atoms: C26_30  and  O1_31
REMARK                            x       y       z     vdW  Elec       q    Type
REMARK                         _______ _______ _______ _____ _____    ______ ____
ROOT
ATOM      1  C   UNL     1      49.396  12.027  18.209  0.00  0.00    +0.027 C 
ATOM      2  C   UNL     1      48.801  13.219  17.478  0.00  0.00    -0.036 C 
ATOM      3  C   UNL     1      47.269  13.143  17.618  0.00  0.00    +0.019 C 
ATOM      4  C   UNL     1      46.753  11.897  16.903  0.00  0.00    -0.018 C 
ATOM      5  C   UNL     1      47.060  11.978  15.413  0.00  0.00    +0.166 C 
ATOM      8  C   UNL     1      48.554  12.162  15.144  0.00  0.00    -0.038 C 
ATOM      9  C   UNL     1      49.283  10.829  15.302  0.00  0.00    +0.034 C 
ATOM     10  C   UNL     1      48.678  12.576  13.657  0.00  0.00    +0.018 C 
ATOM     11  C   UNL     1      49.257  14.554  18.075  0.00  0.00    +0.002 C 
ATOM     12  C   UNL     1      48.851  14.747  19.517  0.00  0.00    +0.013 C 
ATOM     13  C   UNL     1      49.209  16.119  20.073  0.00  0.00    +0.012 C 
ATOM     14  C   UNL     1      49.910  17.039  19.068  0.00  0.00    -0.001 C 
ATOM     15  C   UNL     1      48.875  17.538  18.062  0.00  0.00    +0.024 C 
ATOM     16  C   UNL     1      51.000  16.279  18.380  0.00  0.00    -0.096 C 
ATOM     17  C   UNL     1      52.209  16.736  18.228  0.00  0.00    -0.055 C 
ATOM     18  C   UNL     1      52.720  18.018  18.800  0.00  0.00    +0.066 C 
ATOM     19  C   UNL     1      51.572  18.989  19.104  0.00  0.00    -0.037 C 
ATOM     23  C   UNL     1      52.134  20.055  20.063  0.00  0.00    +0.024 C 
ATOM     24  C   UNL     1      51.047  21.021  20.508  0.00  0.00    +0.012 C 
ATOM     25  C   UNL     1      49.872  20.297  21.158  0.00  0.00    -0.064 C 
ATOM     26  C   UNL     1      50.289  19.700  22.502  0.00  0.00    +0.021 C 
ATOM     27  C   UNL     1      48.744  21.313  21.404  0.00  0.00    +0.015 C 
ATOM     28  C   UNL     1      49.340  19.202  20.232  0.00  0.00    +0.026 C 
ATOM     29  C   UNL     1      50.456  18.249  19.820  0.00  0.00    +0.008 C 
ATOM     30  C   UNL     1      50.724  14.873  17.852  0.00  0.00    -0.003 C 
ATOM     31  C   UNL     1      51.671  13.940  18.627  0.00  0.00    +0.028 C 
ATOM     32  C   UNL     1      51.059  14.809  16.362  0.00  0.00    +0.018 C 
ATOM     33  C   UNL     1      50.650  13.439  15.800  0.00  0.00    +0.018 C 
ATOM     34  C   UNL     1      49.146  13.262  15.993  0.00  0.00    -0.003 C 
ENDROOT
BRANCH   5   6
ATOM      6  O   UNL     1      46.612  10.780  14.769  0.00  0.00    -0.564 OA
ATOM      7  H   UNL     1      47.105   9.988  15.025  0.00  0.00    +0.375 HD
ENDBRANCH   5   6
BRANCH  19  20
ATOM     20  C   UNL     1      51.128  19.674  17.815  0.00  0.00    +0.182 C 
BRANCH  20  21
ATOM     21  O   UNL     1      52.275  20.163  17.117  0.00  0.00    -0.570 OA
ATOM     22  H   UNL     1      52.387  19.787  16.233  0.00  0.00    +0.377 HD
ENDBRANCH  20  21
ENDBRANCH  19  20
TORSDOF 3
ENDMDL
MODEL 7
REMARK VINA RESULT:      -5.5      2.906      7.698
REMARK  Name = ZINC95486088
REMARK  10 active torsions:
REMARK  status: ('A' for Active; 'I' for Inactive)
REMARK    1  A    between atoms: C1_1  and  C2_2
REMARK    2  A    between atoms: C5_5  and  O2_36
REMARK    3  A    between atoms: C6_7  and  C29_34
REMARK    4  A    between atoms: C6_7  and  C30_35
REMARK    5  A    between atoms: C10_12  and  C28_33
REMARK    6  A    between atoms: C14_17  and  C27_32
REMARK    7  A    between atoms: C18_21  and  C26_30
REMARK    8  A    between atoms: C21_25  and  C24_28
REMARK    9  A    between atoms: C21_25  and  C25_29
REMARK   10  A    between atoms: C26_30  and  O1_31
REMARK                            x       y       z     vdW  Elec       q    Type
REMARK                         _______ _______ _______ _____ _____    ______ ____
ROOT
ATOM      1  C   UNL     1      49.331  15.952  17.749  0.00  0.00    +0.027 C 
ATOM      2  C   UNL     1      49.235  17.249  18.534  0.00  0.00    -0.036 C 
ATOM      3  C   UNL     1      49.875  18.363  17.686  0.00  0.00    +0.019 C 
ATOM      4  C   UNL     1      51.363  18.078  17.508  0.00  0.00    -0.018 C 
ATOM      5  C   UNL     1      52.068  18.086  18.858  0.00  0.00    +0.166 C 
ATOM      8  C   UNL     1      51.449  17.084  19.835  0.00  0.00    -0.038 C 
ATOM      9  C   UNL     1      51.925  15.670  19.507  0.00  0.00    +0.034 C 
ATOM     10  C   UNL     1      52.011  17.440  21.234  0.00  0.00    +0.018 C 
ATOM     11  C   UNL     1      47.784  17.653  18.814  0.00  0.00    +0.002 C 
ATOM     12  C   UNL     1      46.968  17.899  17.567  0.00  0.00    +0.013 C 
ATOM     13  C   UNL     1      45.560  18.407  17.849  0.00  0.00    +0.012 C 
ATOM     14  C   UNL     1      45.240  18.570  19.339  0.00  0.00    -0.001 C 
ATOM     15  C   UNL     1      45.965  19.810  19.857  0.00  0.00    +0.024 C 
ATOM     16  C   UNL     1      45.682  17.346  20.077  0.00  0.00    -0.096 C 
ATOM     17  C   UNL     1      44.936  16.720  20.940  0.00  0.00    -0.055 C 
ATOM     18  C   UNL     1      43.511  17.051  21.243  0.00  0.00    +0.066 C 
ATOM     19  C   UNL     1      43.185  18.502  20.867  0.00  0.00    -0.037 C 
ATOM     23  C   UNL     1      41.649  18.609  20.802  0.00  0.00    +0.024 C 
ATOM     24  C   UNL     1      41.214  19.992  20.339  0.00  0.00    +0.012 C 
ATOM     25  C   UNL     1      41.825  20.360  18.991  0.00  0.00    -0.064 C 
ATOM     26  C   UNL     1      41.234  19.491  17.881  0.00  0.00    +0.021 C 
ATOM     27  C   UNL     1      41.494  21.832  18.688  0.00  0.00    +0.015 C 
ATOM     28  C   UNL     1      43.347  20.208  19.033  0.00  0.00    +0.026 C 
ATOM     29  C   UNL     1      43.739  18.807  19.487  0.00  0.00    +0.008 C 
ATOM     30  C   UNL     1      47.059  16.750  19.797  0.00  0.00    -0.003 C 
ATOM     31  C   UNL     1      46.801  15.337  19.244  0.00  0.00    +0.028 C 
ATOM     32  C   UNL     1      47.849  16.646  21.102  0.00  0.00    +0.018 C 
ATOM     33  C   UNL     1      49.282  16.180  20.801  0.00  0.00    +0.018 C 
ATOM     34  C   UNL     1      49.945  17.204  19.884  0.00  0.00    -0.003 C 
ENDROOT
BRANCH   5   6
ATOM      6  O   UNL     1      53.452  17.766  18.674  0.00  0.00    -0.564 OA
ATOM      7  H   UNL     1      53.610  16.869  18.350  0.00  0.00    +0.375 HD
ENDBRANCH   5   6
BRANCH  19  20
ATOM     20  C   UNL     1      43.695  19.439  21.957  0.00  0.00    +0.182 C 
BRANCH  20  21
ATOM     21  O   UNL     1      42.600  20.176  22.502  0.00  0.00    -0.570 OA
ATOM     22  H   UNL     1      41.977  20.503  21.839  0.00  0.00    +0.377 HD
ENDBRANCH  20  21
ENDBRANCH  19  20
TORSDOF 3
ENDMDL
MODEL 8
REMARK VINA RESULT:      -5.2      1.954      2.852
REMARK  Name = ZINC95486088
REMARK  10 active torsions:
REMARK  status: ('A' for Active; 'I' for Inactive)
REMARK    1  A    between atoms: C1_1  and  C2_2
REMARK    2  A    between atoms: C5_5  and  O2_36
REMARK    3  A    between atoms: C6_7  and  C29_34
REMARK    4  A    between atoms: C6_7  and  C30_35
REMARK    5  A    between atoms: C10_12  and  C28_33
REMARK    6  A    between atoms: C14_17  and  C27_32
REMARK    7  A    between atoms: C18_21  and  C26_30
REMARK    8  A    between atoms: C21_25  and  C24_28
REMARK    9  A    between atoms: C21_25  and  C25_29
REMARK   10  A    between atoms: C26_30  and  O1_31
REMARK                            x       y       z     vdW  Elec       q    Type
REMARK                         _______ _______ _______ _____ _____    ______ ____
ROOT
ATOM      1  C   UNL     1      46.690  20.476  18.686  0.00  0.00    +0.027 C 
ATOM      2  C   UNL     1      46.216  19.100  19.123  0.00  0.00    -0.036 C 
ATOM      3  C   UNL     1      44.933  18.771  18.339  0.00  0.00    +0.019 C 
ATOM      4  C   UNL     1      43.830  19.750  18.731  0.00  0.00    -0.018 C 
ATOM      5  C   UNL     1      43.497  19.607  20.210  0.00  0.00    +0.166 C 
ATOM      8  C   UNL     1      44.726  19.809  21.098  0.00  0.00    -0.038 C 
ATOM      9  C   UNL     1      45.036  21.299  21.232  0.00  0.00    +0.034 C 
ATOM     10  C   UNL     1      44.332  19.297  22.505  0.00  0.00    +0.018 C 
ATOM     11  C   UNL     1      47.244  18.006  18.814  0.00  0.00    +0.002 C 
ATOM     12  C   UNL     1      47.550  17.855  17.343  0.00  0.00    +0.013 C 
ATOM     13  C   UNL     1      48.486  16.695  17.031  0.00  0.00    +0.012 C 
ATOM     14  C   UNL     1      48.938  15.905  18.263  0.00  0.00    -0.001 C 
ATOM     15  C   UNL     1      47.770  15.045  18.742  0.00  0.00    +0.024 C 
ATOM     16  C   UNL     1      49.371  16.859  19.331  0.00  0.00    -0.096 C 
ATOM     17  C   UNL     1      50.481  16.734  19.998  0.00  0.00    -0.055 C 
ATOM     18  C   UNL     1      51.530  15.704  19.734  0.00  0.00    +0.066 C 
ATOM     19  C   UNL     1      50.947  14.493  18.994  0.00  0.00    -0.037 C 
ATOM     23  C   UNL     1      52.139  13.722  18.397  0.00  0.00    +0.024 C 
ATOM     24  C   UNL     1      51.666  12.547  17.554  0.00  0.00    +0.012 C 
ATOM     25  C   UNL     1      50.716  12.986  16.445  0.00  0.00    -0.064 C 
ATOM     26  C   UNL     1      51.463  13.806  15.393  0.00  0.00    +0.021 C 
ATOM     27  C   UNL     1      50.139  11.732  15.766  0.00  0.00    +0.015 C 
ATOM     28  C   UNL     1      49.555  13.797  17.025  0.00  0.00    +0.026 C 
ATOM     29  C   UNL     1      50.071  14.970  17.849  0.00  0.00    +0.008 C 
ATOM     30  C   UNL     1      48.507  18.077  19.653  0.00  0.00    -0.003 C 
ATOM     31  C   UNL     1      49.378  19.305  19.333  0.00  0.00    +0.028 C 
ATOM     32  C   UNL     1      48.156  18.079  21.141  0.00  0.00    +0.018 C 
ATOM     33  C   UNL     1      47.174  19.223  21.436  0.00  0.00    +0.018 C 
ATOM     34  C   UNL     1      45.907  19.002  20.614  0.00  0.00    -0.003 C 
ENDROOT
BRANCH   5   6
ATOM      6  O   UNL     1      42.497  20.568  20.568  0.00  0.00    -0.564 OA
ATOM      7  H   UNL     1      42.353  20.650  21.521  0.00  0.00    +0.375 HD
ENDBRANCH   5   6
BRANCH  19  20
ATOM     20  C   UNL     1      50.225  13.588  19.986  0.00  0.00    +0.182 C 
BRANCH  20  21
ATOM     21  O   UNL     1      51.088  13.306  21.089  0.00  0.00    -0.570 OA
ATOM     22  H   UNL     1      50.844  12.514  21.587  0.00  0.00    +0.377 HD
ENDBRANCH  20  21
ENDBRANCH  19  20
TORSDOF 3
ENDMDL
MODEL 9
REMARK VINA RESULT:      -5.1      2.960      8.124
REMARK  Name = ZINC95486088
REMARK  10 active torsions:
REMARK  status: ('A' for Active; 'I' for Inactive)
REMARK    1  A    between atoms: C1_1  and  C2_2
REMARK    2  A    between atoms: C5_5  and  O2_36
REMARK    3  A    between atoms: C6_7  and  C29_34
REMARK    4  A    between atoms: C6_7  and  C30_35
REMARK    5  A    between atoms: C10_12  and  C28_33
REMARK    6  A    between atoms: C14_17  and  C27_32
REMARK    7  A    between atoms: C18_21  and  C26_30
REMARK    8  A    between atoms: C21_25  and  C24_28
REMARK    9  A    between atoms: C21_25  and  C25_29
REMARK   10  A    between atoms: C26_30  and  O1_31
REMARK                            x       y       z     vdW  Elec       q    Type
REMARK                         _______ _______ _______ _____ _____    ______ ____
ROOT
ATOM      1  C   UNL     1      51.388  15.971  17.336  0.00  0.00    +0.027 C 
ATOM      2  C   UNL     1      51.230  16.294  18.812  0.00  0.00    -0.036 C 
ATOM      3  C   UNL     1      52.458  17.111  19.252  0.00  0.00    +0.019 C 
ATOM      4  C   UNL     1      53.713  16.252  19.130  0.00  0.00    -0.018 C 
ATOM      5  C   UNL     1      53.623  15.050  20.062  0.00  0.00    +0.166 C 
ATOM      8  C   UNL     1      52.375  14.207  19.791  0.00  0.00    -0.038 C 
ATOM      9  C   UNL     1      52.591  13.333  18.557  0.00  0.00    +0.034 C 
ATOM     10  C   UNL     1      52.226  13.255  21.004  0.00  0.00    +0.018 C 
ATOM     11  C   UNL     1      49.983  17.139  19.093  0.00  0.00    +0.002 C 
ATOM     12  C   UNL     1      49.992  18.484  18.406  0.00  0.00    +0.013 C 
ATOM     13  C   UNL     1      48.806  19.365  18.776  0.00  0.00    +0.012 C 
ATOM     14  C   UNL     1      47.832  18.721  19.768  0.00  0.00    -0.001 C 
ATOM     15  C   UNL     1      48.476  18.730  21.153  0.00  0.00    +0.024 C 
ATOM     16  C   UNL     1      47.530  17.323  19.329  0.00  0.00    -0.096 C 
ATOM     17  C   UNL     1      46.326  16.835  19.264  0.00  0.00    -0.055 C 
ATOM     18  C   UNL     1      45.071  17.610  19.505  0.00  0.00    +0.066 C 
ATOM     19  C   UNL     1      45.343  18.855  20.359  0.00  0.00    -0.037 C 
ATOM     23  C   UNL     1      44.127  19.786  20.186  0.00  0.00    +0.024 C 
ATOM     24  C   UNL     1      44.335  21.103  20.918  0.00  0.00    +0.012 C 
ATOM     25  C   UNL     1      45.608  21.812  20.467  0.00  0.00    -0.064 C 
ATOM     26  C   UNL     1      45.464  22.307  19.028  0.00  0.00    +0.021 C 
ATOM     27  C   UNL     1      45.844  23.026  21.380  0.00  0.00    +0.015 C 
ATOM     28  C   UNL     1      46.813  20.876  20.589  0.00  0.00    +0.026 C 
ATOM     29  C   UNL     1      46.570  19.577  19.831  0.00  0.00    +0.008 C 
ATOM     30  C   UNL     1      48.669  16.406  18.888  0.00  0.00    -0.003 C 
ATOM     31  C   UNL     1      48.389  16.067  17.413  0.00  0.00    +0.028 C 
ATOM     32  C   UNL     1      48.645  15.122  19.716  0.00  0.00    +0.018 C 
ATOM     33  C   UNL     1      49.871  14.263  19.372  0.00  0.00    +0.018 C 
ATOM     34  C   UNL     1      51.131  15.058  19.702  0.00  0.00    -0.003 C 
ENDROOT
BRANCH   5   6
ATOM      6  O   UNL     1      54.786  14.231  19.896  0.00  0.00    -0.564 OA
ATOM      7  H   UNL     1      55.229  14.342  19.044  0.00  0.00    +0.375 HD
ENDBRANCH   5   6
BRANCH  19  20
ATOM     20  C   UNL     1      45.448  18.455  21.827  0.00  0.00    +0.182 C 
BRANCH  20  21
ATOM     21  O   UNL     1      44.279  17.727  22.207  0.00  0.00    -0.570 OA
ATOM     22  H   UNL     1      44.431  16.783  22.347  0.00  0.00    +0.377 HD
ENDBRANCH  20  21
ENDBRANCH  19  20
TORSDOF 3
ENDMDL
