MODEL 1
REMARK VINA RESULT:      -6.5      0.000      0.000
REMARK  Name = ZINC03871989
REMARK  11 active torsions:
REMARK  status: ('A' for Active; 'I' for Inactive)
REMARK    1  A    between atoms: C1_1  and  C2_2
REMARK    2  A    between atoms: C2_2  and  C3_3
REMARK    3  A    between atoms: C9_11  and  O4_37
REMARK    4  A    between atoms: C10_12  and  O3_35
REMARK    5  A    between atoms: C15_18  and  C16_20
REMARK    6  A    between atoms: C16_20  and  C17_21
REMARK    7  A    between atoms: C20_25  and  O2_33
REMARK    8  A    between atoms: C21_26  and  O1_32
REMARK    9  A    between atoms: O2_33  and  C26_34
REMARK   10  A    between atoms: O3_35  and  C27_36
REMARK   11  A    between atoms: O4_37  and  C28_38
REMARK                            x       y       z     vdW  Elec       q    Type
REMARK                         _______ _______ _______ _____ _____    ______ ____
ROOT
ATOM      3  C   UNL     1      50.686  18.950  17.641  0.00  0.00    -0.007 C 
ATOM      4  C   UNL     1      51.368  17.594  17.433  0.00  0.00    +0.261 C 
ATOM      5  N   UNL     1      50.346  16.570  17.182  0.00  0.00    -0.378 N 
ATOM      6  H   UNL     1      49.785  16.844  16.390  0.00  0.00    +0.422 HD
ATOM      7  C   UNL     1      50.988  15.281  16.895  0.00  0.00    +0.267 C 
ATOM      8  C   UNL     1      49.934  14.325  16.335  0.00  0.00    +0.124 C 
ATOM      9  C   UNL     1      48.725  14.307  17.237  0.00  0.00    -0.083 A 
ATOM     10  C   UNL     1      47.814  13.271  17.104  0.00  0.00    -0.019 A 
ATOM     11  C   UNL     1      46.690  13.220  17.910  0.00  0.00    +0.132 A 
ATOM     14  C   UNL     1      46.476  14.218  18.857  0.00  0.00    +0.118 A 
ATOM     17  C   UNL     1      47.389  15.249  18.985  0.00  0.00    -0.011 A 
ATOM     18  C   UNL     1      48.515  15.294  18.178  0.00  0.00    -0.125 A 
ATOM     19  C   UNL     1      49.486  16.429  18.360  0.00  0.00    +0.230 C 
ATOM     20  C   UNL     1      48.726  17.735  18.599  0.00  0.00    +0.062 C 
ATOM     21  C   UNL     1      49.735  18.863  18.836  0.00  0.00    -0.003 C 
ENDROOT
BRANCH   3   2
ATOM      1  C   UNL     1      51.874  20.932  16.689  0.00  0.00    +0.018 C 
ATOM      2  C   UNL     1      51.749  20.018  17.910  0.00  0.00    +0.045 C 
ENDBRANCH   3   2
BRANCH  11  12
ATOM     12  O   UNL     1      45.799  12.202  17.776  0.00  0.00    -0.296 OA
ATOM     13  C   UNL     1      45.862  11.439  16.570  0.00  0.00    +0.253 C 
ENDBRANCH  11  12
BRANCH  14  15
ATOM     15  O   UNL     1      45.374  14.178  19.652  0.00  0.00    -0.295 OA
ATOM     16  C   UNL     1      45.086  15.348  20.421  0.00  0.00    +0.248 C 
ENDBRANCH  14  15
BRANCH  21  22
ATOM     22  C   UNL     1      48.990  20.190  18.993  0.00  0.00    +0.060 C 
BRANCH  22  23
ATOM     23  C   UNL     1      48.608  20.390  20.461  0.00  0.00    +0.181 C 
ATOM     24  C   UNL     1      47.301  21.137  20.538  0.00  0.00    -0.054 A 
ATOM     25  C   UNL     1      46.289  20.784  19.656  0.00  0.00    -0.063 A 
ATOM     26  C   UNL     1      45.071  21.439  19.691  0.00  0.00    +0.102 A 
ATOM     29  C   UNL     1      44.860  22.457  20.617  0.00  0.00    +0.086 A 
ATOM     32  C   UNL     1      45.873  22.805  21.492  0.00  0.00    +0.032 A 
ATOM     33  C   UNL     1      47.094  22.147  21.452  0.00  0.00    -0.083 A 
ATOM     34  C   UNL     1      48.168  22.572  22.419  0.00  0.00    +0.092 C 
ATOM     35  C   UNL     1      49.249  21.494  22.505  0.00  0.00    +0.178 C 
ATOM     36  N   UNL     1      49.668  21.142  21.140  0.00  0.00    -0.676 NA
ATOM     37  H   UNL     1      50.531  20.620  21.149  0.00  0.00    +0.340 HD
BRANCH  26  27
ATOM     27  O   UNL     1      44.083  21.089  18.824  0.00  0.00    -0.304 OA
ATOM     28  C   UNL     1      43.538  19.774  18.958  0.00  0.00    +0.237 C 
ENDBRANCH  26  27
BRANCH  29  30
ATOM     30  O   UNL     1      43.665  23.103  20.662  0.00  0.00    -0.485 OA
ATOM     31  H   UNL     1      42.955  22.650  20.186  0.00  0.00    +0.391 HD
ENDBRANCH  29  30
ENDBRANCH  22  23
ENDBRANCH  21  22
TORSDOF 7
ENDMDL
MODEL 2
REMARK VINA RESULT:      -6.4      2.826      7.066
REMARK  Name = ZINC03871989
REMARK  11 active torsions:
REMARK  status: ('A' for Active; 'I' for Inactive)
REMARK    1  A    between atoms: C1_1  and  C2_2
REMARK    2  A    between atoms: C2_2  and  C3_3
REMARK    3  A    between atoms: C9_11  and  O4_37
REMARK    4  A    between atoms: C10_12  and  O3_35
REMARK    5  A    between atoms: C15_18  and  C16_20
REMARK    6  A    between atoms: C16_20  and  C17_21
REMARK    7  A    between atoms: C20_25  and  O2_33
REMARK    8  A    between atoms: C21_26  and  O1_32
REMARK    9  A    between atoms: O2_33  and  C26_34
REMARK   10  A    between atoms: O3_35  and  C27_36
REMARK   11  A    between atoms: O4_37  and  C28_38
REMARK                            x       y       z     vdW  Elec       q    Type
REMARK                         _______ _______ _______ _____ _____    ______ ____
ROOT
ATOM      3  C   UNL     1      49.268  16.768  21.030  0.00  0.00    -0.007 C 
ATOM      4  C   UNL     1      47.963  16.363  21.720  0.00  0.00    +0.261 C 
ATOM      5  N   UNL     1      46.833  17.006  21.040  0.00  0.00    -0.378 N 
ATOM      6  H   UNL     1      46.844  16.755  20.063  0.00  0.00    +0.422 HD
ATOM      7  C   UNL     1      45.568  16.560  21.637  0.00  0.00    +0.267 C 
ATOM      8  C   UNL     1      44.419  16.988  20.721  0.00  0.00    +0.124 C 
ATOM      9  C   UNL     1      44.545  18.453  20.388  0.00  0.00    -0.083 A 
ATOM     10  C   UNL     1      43.443  19.111  19.865  0.00  0.00    -0.019 A 
ATOM     11  C   UNL     1      43.518  20.455  19.543  0.00  0.00    +0.132 A 
ATOM     14  C   UNL     1      44.710  21.146  19.745  0.00  0.00    +0.118 A 
ATOM     17  C   UNL     1      45.807  20.484  20.268  0.00  0.00    -0.011 A 
ATOM     18  C   UNL     1      45.725  19.138  20.592  0.00  0.00    -0.125 A 
ATOM     19  C   UNL     1      46.939  18.462  21.167  0.00  0.00    +0.230 C 
ATOM     20  C   UNL     1      48.199  18.949  20.449  0.00  0.00    +0.062 C 
ATOM     21  C   UNL     1      49.425  18.289  21.088  0.00  0.00    -0.003 C 
ENDROOT
BRANCH   3   2
ATOM      1  C   UNL     1      51.036  15.011  20.849  0.00  0.00    +0.018 C 
ATOM      2  C   UNL     1      50.449  16.104  21.743  0.00  0.00    +0.045 C 
ENDBRANCH   3   2
BRANCH  11  12
ATOM     12  O   UNL     1      42.435  21.097  19.031  0.00  0.00    -0.296 OA
ATOM     13  C   UNL     1      41.499  20.305  18.297  0.00  0.00    +0.253 C 
ENDBRANCH  11  12
BRANCH  14  15
ATOM     15  O   UNL     1      44.796  22.466  19.430  0.00  0.00    -0.295 OA
ATOM     16  C   UNL     1      45.121  23.366  20.491  0.00  0.00    +0.248 C 
ENDBRANCH  14  15
BRANCH  21  22
ATOM     22  C   UNL     1      50.685  18.701  20.325  0.00  0.00    +0.060 C 
BRANCH  22  23
ATOM     23  C   UNL     1      50.287  19.426  19.037  0.00  0.00    +0.181 C 
ATOM     24  C   UNL     1      50.945  18.750  17.862  0.00  0.00    -0.054 A 
ATOM     25  C   UNL     1      50.973  17.363  17.832  0.00  0.00    -0.063 A 
ATOM     26  C   UNL     1      51.561  16.697  16.772  0.00  0.00    +0.102 A 
ATOM     29  C   UNL     1      52.129  17.425  15.729  0.00  0.00    +0.086 A 
ATOM     32  C   UNL     1      52.100  18.807  15.765  0.00  0.00    +0.032 A 
ATOM     33  C   UNL     1      51.510  19.470  16.832  0.00  0.00    -0.083 A 
ATOM     34  C   UNL     1      51.514  20.977  16.828  0.00  0.00    +0.092 C 
ATOM     35  C   UNL     1      50.488  21.504  17.833  0.00  0.00    +0.178 C 
ATOM     36  N   UNL     1      50.706  20.829  19.121  0.00  0.00    -0.676 NA
ATOM     37  H   UNL     1      50.222  21.306  19.866  0.00  0.00    +0.340 HD
BRANCH  26  27
ATOM     27  O   UNL     1      51.586  15.337  16.748  0.00  0.00    -0.304 OA
ATOM     28  C   UNL     1      50.346  14.662  16.969  0.00  0.00    +0.237 C 
ENDBRANCH  26  27
BRANCH  29  30
ATOM     30  O   UNL     1      52.707  16.779  14.682  0.00  0.00    -0.485 OA
ATOM     31  H   UNL     1      53.669  16.711  14.744  0.00  0.00    +0.391 HD
ENDBRANCH  29  30
ENDBRANCH  22  23
ENDBRANCH  21  22
TORSDOF 7
ENDMDL
MODEL 3
REMARK VINA RESULT:      -6.4      2.150      3.599
REMARK  Name = ZINC03871989
REMARK  11 active torsions:
REMARK  status: ('A' for Active; 'I' for Inactive)
REMARK    1  A    between atoms: C1_1  and  C2_2
REMARK    2  A    between atoms: C2_2  and  C3_3
REMARK    3  A    between atoms: C9_11  and  O4_37
REMARK    4  A    between atoms: C10_12  and  O3_35
REMARK    5  A    between atoms: C15_18  and  C16_20
REMARK    6  A    between atoms: C16_20  and  C17_21
REMARK    7  A    between atoms: C20_25  and  O2_33
REMARK    8  A    between atoms: C21_26  and  O1_32
REMARK    9  A    between atoms: O2_33  and  C26_34
REMARK   10  A    between atoms: O3_35  and  C27_36
REMARK   11  A    between atoms: O4_37  and  C28_38
REMARK                            x       y       z     vdW  Elec       q    Type
REMARK                         _______ _______ _______ _____ _____    ______ ____
ROOT
ATOM      3  C   UNL     1      48.723  19.477  18.719  0.00  0.00    -0.007 C 
ATOM      4  C   UNL     1      49.955  18.700  19.191  0.00  0.00    +0.261 C 
ATOM      5  N   UNL     1      50.256  17.633  18.228  0.00  0.00    -0.378 N 
ATOM      6  H   UNL     1      50.384  18.036  17.312  0.00  0.00    +0.422 HD
ATOM      7  C   UNL     1      51.485  16.933  18.622  0.00  0.00    +0.267 C 
ATOM      8  C   UNL     1      51.942  16.056  17.456  0.00  0.00    +0.124 C 
ATOM      9  C   UNL     1      50.794  15.210  16.967  0.00  0.00    -0.083 A 
ATOM     10  C   UNL     1      51.071  14.116  16.162  0.00  0.00    -0.019 A 
ATOM     11  C   UNL     1      50.045  13.316  15.691  0.00  0.00    +0.132 A 
ATOM     14  C   UNL     1      48.728  13.615  16.028  0.00  0.00    +0.118 A 
ATOM     17  C   UNL     1      48.457  14.707  16.833  0.00  0.00    -0.011 A 
ATOM     18  C   UNL     1      49.489  15.504  17.305  0.00  0.00    -0.125 A 
ATOM     19  C   UNL     1      49.148  16.675  18.186  0.00  0.00    +0.230 C 
ATOM     20  C   UNL     1      47.888  17.371  17.667  0.00  0.00    +0.062 C 
ATOM     21  C   UNL     1      47.531  18.525  18.610  0.00  0.00    -0.003 C 
ENDROOT
BRANCH   3   2
ATOM      1  C   UNL     1      48.331  19.989  21.133  0.00  0.00    +0.018 C 
ATOM      2  C   UNL     1      48.403  20.585  19.725  0.00  0.00    +0.045 C 
ENDBRANCH   3   2
BRANCH  11  12
ATOM     12  O   UNL     1      50.322  12.245  14.902  0.00  0.00    -0.296 OA
ATOM     13  C   UNL     1      50.530  12.499  13.511  0.00  0.00    +0.253 C 
ENDBRANCH  11  12
BRANCH  14  15
ATOM     15  O   UNL     1      47.712  12.837  15.569  0.00  0.00    -0.295 OA
ATOM     16  C   UNL     1      46.870  12.225  16.547  0.00  0.00    +0.248 C 
ENDBRANCH  14  15
BRANCH  21  22
ATOM     22  C   UNL     1      46.322  19.282  18.057  0.00  0.00    +0.060 C 
BRANCH  22  23
ATOM     23  C   UNL     1      45.105  19.019  18.946  0.00  0.00    +0.181 C 
ATOM     24  C   UNL     1      44.871  20.214  19.835  0.00  0.00    -0.054 A 
ATOM     25  C   UNL     1      44.996  21.480  19.281  0.00  0.00    -0.063 A 
ATOM     26  C   UNL     1      44.787  22.606  20.056  0.00  0.00    +0.102 A 
ATOM     29  C   UNL     1      44.448  22.467  21.400  0.00  0.00    +0.086 A 
ATOM     32  C   UNL     1      44.327  21.203  21.947  0.00  0.00    +0.032 A 
ATOM     33  C   UNL     1      44.540  20.076  21.166  0.00  0.00    -0.083 A 
ATOM     34  C   UNL     1      44.406  18.721  21.812  0.00  0.00    +0.092 C 
ATOM     35  C   UNL     1      44.267  17.642  20.738  0.00  0.00    +0.178 C 
ATOM     36  N   UNL     1      45.346  17.819  19.755  0.00  0.00    -0.676 NA
ATOM     37  H   UNL     1      45.440  17.003  19.169  0.00  0.00    +0.340 HD
BRANCH  26  27
ATOM     27  O   UNL     1      44.911  23.845  19.508  0.00  0.00    -0.304 OA
ATOM     28  C   UNL     1      43.786  24.350  18.787  0.00  0.00    +0.237 C 
ENDBRANCH  26  27
BRANCH  29  30
ATOM     30  O   UNL     1      44.237  23.568  22.168  0.00  0.00    -0.485 OA
ATOM     31  H   UNL     1      43.446  23.517  22.721  0.00  0.00    +0.391 HD
ENDBRANCH  29  30
ENDBRANCH  22  23
ENDBRANCH  21  22
TORSDOF 7
ENDMDL
MODEL 4
REMARK VINA RESULT:      -6.4      2.553      4.548
REMARK  Name = ZINC03871989
REMARK  11 active torsions:
REMARK  status: ('A' for Active; 'I' for Inactive)
REMARK    1  A    between atoms: C1_1  and  C2_2
REMARK    2  A    between atoms: C2_2  and  C3_3
REMARK    3  A    between atoms: C9_11  and  O4_37
REMARK    4  A    between atoms: C10_12  and  O3_35
REMARK    5  A    between atoms: C15_18  and  C16_20
REMARK    6  A    between atoms: C16_20  and  C17_21
REMARK    7  A    between atoms: C20_25  and  O2_33
REMARK    8  A    between atoms: C21_26  and  O1_32
REMARK    9  A    between atoms: O2_33  and  C26_34
REMARK   10  A    between atoms: O3_35  and  C27_36
REMARK   11  A    between atoms: O4_37  and  C28_38
REMARK                            x       y       z     vdW  Elec       q    Type
REMARK                         _______ _______ _______ _____ _____    ______ ____
ROOT
ATOM      3  C   UNL     1      48.078  19.968  19.039  0.00  0.00    -0.007 C 
ATOM      4  C   UNL     1      49.589  19.782  19.201  0.00  0.00    +0.261 C 
ATOM      5  N   UNL     1      50.059  18.767  18.250  0.00  0.00    -0.378 N 
ATOM      6  H   UNL     1      49.804  19.042  17.313  0.00  0.00    +0.422 HD
ATOM      7  C   UNL     1      51.519  18.638  18.333  0.00  0.00    +0.267 C 
ATOM      8  C   UNL     1      52.006  17.823  17.133  0.00  0.00    +0.124 C 
ATOM      9  C   UNL     1      51.207  16.549  17.020  0.00  0.00    -0.083 A 
ATOM     10  C   UNL     1      51.703  15.525  16.228  0.00  0.00    -0.019 A 
ATOM     11  C   UNL     1      50.999  14.340  16.095  0.00  0.00    +0.132 A 
ATOM     14  C   UNL     1      49.787  14.182  16.760  0.00  0.00    +0.118 A 
ATOM     17  C   UNL     1      49.297  15.207  17.549  0.00  0.00    -0.011 A 
ATOM     18  C   UNL     1      50.008  16.390  17.682  0.00  0.00    -0.125 A 
ATOM     19  C   UNL     1      49.443  17.474  18.559  0.00  0.00    +0.230 C 
ATOM     20  C   UNL     1      47.928  17.568  18.365  0.00  0.00    +0.062 C 
ATOM     21  C   UNL     1      47.369  18.639  19.308  0.00  0.00    -0.003 C 
ENDROOT
BRANCH   3   2
ATOM      1  C   UNL     1      47.970  20.599  21.455  0.00  0.00    +0.018 C 
ATOM      2  C   UNL     1      47.586  21.020  20.035  0.00  0.00    +0.045 C 
ENDBRANCH   3   2
BRANCH  11  12
ATOM     12  O   UNL     1      51.489  13.339  15.318  0.00  0.00    -0.296 OA
ATOM     13  C   UNL     1      52.042  13.709  14.053  0.00  0.00    +0.253 C 
ENDBRANCH  11  12
BRANCH  14  15
ATOM     15  O   UNL     1      49.086  13.023  16.634  0.00  0.00    -0.295 OA
ATOM     16  C   UNL     1      47.915  13.058  15.816  0.00  0.00    +0.248 C 
ENDBRANCH  14  15
BRANCH  21  22
ATOM     22  C   UNL     1      45.868  18.802  19.064  0.00  0.00    +0.060 C 
BRANCH  22  23
ATOM     23  C   UNL     1      45.120  17.615  19.674  0.00  0.00    +0.181 C 
ATOM     24  C   UNL     1      43.834  18.102  20.291  0.00  0.00    -0.054 A 
ATOM     25  C   UNL     1      43.085  19.040  19.596  0.00  0.00    -0.063 A 
ATOM     26  C   UNL     1      41.895  19.513  20.120  0.00  0.00    +0.102 A 
ATOM     29  C   UNL     1      41.448  19.043  21.352  0.00  0.00    +0.086 A 
ATOM     32  C   UNL     1      42.200  18.110  22.042  0.00  0.00    +0.032 A 
ATOM     33  C   UNL     1      43.394  17.640  21.512  0.00  0.00    -0.083 A 
ATOM     34  C   UNL     1      44.181  16.631  22.308  0.00  0.00    +0.092 C 
ATOM     35  C   UNL     1      45.209  15.944  21.408  0.00  0.00    +0.178 C 
ATOM     36  N   UNL     1      45.967  16.979  20.689  0.00  0.00    -0.676 NA
ATOM     37  H   UNL     1      46.801  16.594  20.272  0.00  0.00    +0.340 HD
BRANCH  26  27
ATOM     27  O   UNL     1      41.165  20.434  19.435  0.00  0.00    -0.304 OA
ATOM     28  C   UNL     1      40.773  20.089  18.104  0.00  0.00    +0.237 C 
ENDBRANCH  26  27
BRANCH  29  30
ATOM     30  O   UNL     1      40.279  19.500  21.874  0.00  0.00    -0.485 OA
ATOM     31  H   UNL     1      39.532  19.461  21.260  0.00  0.00    +0.391 HD
ENDBRANCH  29  30
ENDBRANCH  22  23
ENDBRANCH  21  22
TORSDOF 7
ENDMDL
MODEL 5
REMARK VINA RESULT:      -6.0      2.780      5.063
REMARK  Name = ZINC03871989
REMARK  11 active torsions:
REMARK  status: ('A' for Active; 'I' for Inactive)
REMARK    1  A    between atoms: C1_1  and  C2_2
REMARK    2  A    between atoms: C2_2  and  C3_3
REMARK    3  A    between atoms: C9_11  and  O4_37
REMARK    4  A    between atoms: C10_12  and  O3_35
REMARK    5  A    between atoms: C15_18  and  C16_20
REMARK    6  A    between atoms: C16_20  and  C17_21
REMARK    7  A    between atoms: C20_25  and  O2_33
REMARK    8  A    between atoms: C21_26  and  O1_32
REMARK    9  A    between atoms: O2_33  and  C26_34
REMARK   10  A    between atoms: O3_35  and  C27_36
REMARK   11  A    between atoms: O4_37  and  C28_38
REMARK                            x       y       z     vdW  Elec       q    Type
REMARK                         _______ _______ _______ _____ _____    ______ ____
ROOT
ATOM      3  C   UNL     1      46.657  15.229  19.010  0.00  0.00    -0.007 C 
ATOM      4  C   UNL     1      46.835  13.731  19.270  0.00  0.00    +0.261 C 
ATOM      5  N   UNL     1      48.131  13.295  18.737  0.00  0.00    -0.378 N 
ATOM      6  H   UNL     1      48.866  13.847  19.153  0.00  0.00    +0.422 HD
ATOM      7  C   UNL     1      48.354  11.879  19.055  0.00  0.00    +0.267 C 
ATOM      8  C   UNL     1      49.820  11.541  18.774  0.00  0.00    +0.124 C 
ATOM      9  C   UNL     1      50.199  12.005  17.390  0.00  0.00    -0.083 A 
ATOM     10  C   UNL     1      51.355  11.501  16.815  0.00  0.00    -0.019 A 
ATOM     11  C   UNL     1      51.739  11.904  15.548  0.00  0.00    +0.132 A 
ATOM     14  C   UNL     1      50.959  12.822  14.851  0.00  0.00    +0.118 A 
ATOM     17  C   UNL     1      49.805  13.321  15.429  0.00  0.00    -0.011 A 
ATOM     18  C   UNL     1      49.423  12.912  16.698  0.00  0.00    -0.125 A 
ATOM     19  C   UNL     1      48.155  13.473  17.283  0.00  0.00    +0.230 C 
ATOM     20  C   UNL     1      48.037  14.961  16.946  0.00  0.00    +0.062 C 
ATOM     21  C   UNL     1      46.714  15.495  17.504  0.00  0.00    -0.003 C 
ENDROOT
BRANCH   3   2
ATOM      1  C   UNL     1      45.284  15.514  21.079  0.00  0.00    +0.018 C 
ATOM      2  C   UNL     1      45.302  15.683  19.558  0.00  0.00    +0.045 C 
ENDBRANCH   3   2
BRANCH  11  12
ATOM     12  O   UNL     1      52.874  11.408  14.989  0.00  0.00    -0.296 OA
ATOM     13  C   UNL     1      53.486  10.293  15.641  0.00  0.00    +0.253 C 
ENDBRANCH  11  12
BRANCH  14  15
ATOM     15  O   UNL     1      51.328  13.226  13.606  0.00  0.00    -0.295 OA
ATOM     16  C   UNL     1      50.443  12.910  12.532  0.00  0.00    +0.248 C 
ENDBRANCH  14  15
BRANCH  21  22
ATOM     22  C   UNL     1      46.622  17.001  17.248  0.00  0.00    +0.060 C 
BRANCH  22  23
ATOM     23  C   UNL     1      47.233  17.757  18.429  0.00  0.00    +0.181 C 
ATOM     24  C   UNL     1      46.464  19.033  18.655  0.00  0.00    -0.054 A 
ATOM     25  C   UNL     1      45.079  18.989  18.572  0.00  0.00    -0.063 A 
ATOM     26  C   UNL     1      44.330  20.134  18.776  0.00  0.00    +0.102 A 
ATOM     29  C   UNL     1      44.969  21.336  19.066  0.00  0.00    +0.086 A 
ATOM     32  C   UNL     1      46.350  21.374  19.145  0.00  0.00    +0.032 A 
ATOM     33  C   UNL     1      47.097  20.224  18.938  0.00  0.00    -0.083 A 
ATOM     34  C   UNL     1      48.599  20.321  19.025  0.00  0.00    +0.092 C 
ATOM     35  C   UNL     1      49.203  18.925  19.181  0.00  0.00    +0.178 C 
ATOM     36  N   UNL     1      48.641  18.053  18.139  0.00  0.00    -0.676 NA
ATOM     37  H   UNL     1      49.176  17.203  18.050  0.00  0.00    +0.340 HD
BRANCH  26  27
ATOM     27  O   UNL     1      42.973  20.086  18.693  0.00  0.00    -0.304 OA
ATOM     28  C   UNL     1      42.277  19.495  19.792  0.00  0.00    +0.237 C 
ENDBRANCH  26  27
BRANCH  29  30
ATOM     30  O   UNL     1      44.241  22.465  19.271  0.00  0.00    -0.485 OA
ATOM     31  H   UNL     1      43.712  22.451  20.081  0.00  0.00    +0.391 HD
ENDBRANCH  29  30
ENDBRANCH  22  23
ENDBRANCH  21  22
TORSDOF 7
ENDMDL
MODEL 6
REMARK VINA RESULT:      -5.9      3.456      9.175
REMARK  Name = ZINC03871989
REMARK  11 active torsions:
REMARK  status: ('A' for Active; 'I' for Inactive)
REMARK    1  A    between atoms: C1_1  and  C2_2
REMARK    2  A    between atoms: C2_2  and  C3_3
REMARK    3  A    between atoms: C9_11  and  O4_37
REMARK    4  A    between atoms: C10_12  and  O3_35
REMARK    5  A    between atoms: C15_18  and  C16_20
REMARK    6  A    between atoms: C16_20  and  C17_21
REMARK    7  A    between atoms: C20_25  and  O2_33
REMARK    8  A    between atoms: C21_26  and  O1_32
REMARK    9  A    between atoms: O2_33  and  C26_34
REMARK   10  A    between atoms: O3_35  and  C27_36
REMARK   11  A    between atoms: O4_37  and  C28_38
REMARK                            x       y       z     vdW  Elec       q    Type
REMARK                         _______ _______ _______ _____ _____    ______ ____
ROOT
ATOM      3  C   UNL     1      45.986  15.646  19.225  0.00  0.00    -0.007 C 
ATOM      4  C   UNL     1      46.386  16.276  20.562  0.00  0.00    +0.261 C 
ATOM      5  N   UNL     1      47.186  17.481  20.313  0.00  0.00    -0.378 N 
ATOM      6  H   UNL     1      46.662  18.116  19.730  0.00  0.00    +0.422 HD
ATOM      7  C   UNL     1      47.505  18.145  21.583  0.00  0.00    +0.267 C 
ATOM      8  C   UNL     1      48.054  19.540  21.280  0.00  0.00    +0.124 C 
ATOM      9  C   UNL     1      49.157  19.447  20.256  0.00  0.00    -0.083 A 
ATOM     10  C   UNL     1      50.009  20.529  20.098  0.00  0.00    -0.019 A 
ATOM     11  C   UNL     1      51.031  20.485  19.167  0.00  0.00    +0.132 A 
ATOM     14  C   UNL     1      51.202  19.346  18.385  0.00  0.00    +0.118 A 
ATOM     17  C   UNL     1      50.350  18.268  18.547  0.00  0.00    -0.011 A 
ATOM     18  C   UNL     1      49.328  18.316  19.484  0.00  0.00    -0.125 A 
ATOM     19  C   UNL     1      48.432  17.117  19.633  0.00  0.00    +0.230 C 
ATOM     20  C   UNL     1      48.113  16.528  18.258  0.00  0.00    +0.062 C 
ATOM     21  C   UNL     1      47.246  15.277  18.439  0.00  0.00    -0.003 C 
ENDROOT
BRANCH   3   2
ATOM      1  C   UNL     1      45.697  13.666  20.722  0.00  0.00    +0.018 C 
ATOM      2  C   UNL     1      45.158  14.385  19.484  0.00  0.00    +0.045 C 
ENDBRANCH   3   2
BRANCH  11  12
ATOM     12  O   UNL     1      51.864  21.549  19.016  0.00  0.00    -0.296 OA
ATOM     13  C   UNL     1      52.649  21.925  20.149  0.00  0.00    +0.253 C 
ENDBRANCH  11  12
BRANCH  14  15
ATOM     15  O   UNL     1      52.202  19.293  17.465  0.00  0.00    -0.295 OA
ATOM     16  C   UNL     1      51.823  19.363  16.090  0.00  0.00    +0.248 C 
ENDBRANCH  14  15
BRANCH  21  22
ATOM     22  C   UNL     1      46.850  14.727  17.068  0.00  0.00    +0.060 C 
BRANCH  22  23
ATOM     23  C   UNL     1      47.092  13.216  17.036  0.00  0.00    +0.181 C 
ATOM     24  C   UNL     1      48.286  12.922  16.164  0.00  0.00    -0.054 A 
ATOM     25  C   UNL     1      49.398  13.746  16.272  0.00  0.00    -0.063 A 
ATOM     26  C   UNL     1      50.519  13.513  15.496  0.00  0.00    +0.102 A 
ATOM     29  C   UNL     1      50.530  12.446  14.602  0.00  0.00    +0.086 A 
ATOM     32  C   UNL     1      49.419  11.630  14.497  0.00  0.00    +0.032 A 
ATOM     33  C   UNL     1      48.296  11.868  15.276  0.00  0.00    -0.083 A 
ATOM     34  C   UNL     1      47.107  10.957  15.116  0.00  0.00    +0.092 C 
ATOM     35  C   UNL     1      46.165  11.113  16.311  0.00  0.00    +0.178 C 
ATOM     36  N   UNL     1      45.898  12.545  16.512  0.00  0.00    -0.676 NA
ATOM     37  H   UNL     1      45.109  12.684  17.124  0.00  0.00    +0.340 HD
BRANCH  26  27
ATOM     27  O   UNL     1      51.606  14.324  15.606  0.00  0.00    -0.304 OA
ATOM     28  C   UNL     1      51.530  15.384  16.561  0.00  0.00    +0.237 C 
ENDBRANCH  26  27
BRANCH  29  30
ATOM     30  O   UNL     1      51.629  12.207  13.838  0.00  0.00    -0.485 OA
ATOM     31  H   UNL     1      52.467  12.365  14.293  0.00  0.00    +0.391 HD
ENDBRANCH  29  30
ENDBRANCH  22  23
ENDBRANCH  21  22
TORSDOF 7
ENDMDL
MODEL 7
REMARK VINA RESULT:      -5.8      1.564      7.352
REMARK  Name = ZINC03871989
REMARK  11 active torsions:
REMARK  status: ('A' for Active; 'I' for Inactive)
REMARK    1  A    between atoms: C1_1  and  C2_2
REMARK    2  A    between atoms: C2_2  and  C3_3
REMARK    3  A    between atoms: C9_11  and  O4_37
REMARK    4  A    between atoms: C10_12  and  O3_35
REMARK    5  A    between atoms: C15_18  and  C16_20
REMARK    6  A    between atoms: C16_20  and  C17_21
REMARK    7  A    between atoms: C20_25  and  O2_33
REMARK    8  A    between atoms: C21_26  and  O1_32
REMARK    9  A    between atoms: O2_33  and  C26_34
REMARK   10  A    between atoms: O3_35  and  C27_36
REMARK   11  A    between atoms: O4_37  and  C28_38
REMARK                            x       y       z     vdW  Elec       q    Type
REMARK                         _______ _______ _______ _____ _____    ______ ____
ROOT
ATOM      3  C   UNL     1      51.324  16.750  19.016  0.00  0.00    -0.007 C 
ATOM      4  C   UNL     1      51.639  18.248  19.020  0.00  0.00    +0.261 C 
ATOM      5  N   UNL     1      50.493  18.985  19.568  0.00  0.00    -0.378 N 
ATOM      6  H   UNL     1      50.280  18.634  20.489  0.00  0.00    +0.422 HD
ATOM      7  C   UNL     1      50.813  20.415  19.658  0.00  0.00    +0.267 C 
ATOM      8  C   UNL     1      49.745  21.101  20.511  0.00  0.00    +0.124 C 
ATOM      9  C   UNL     1      48.371  20.732  20.009  0.00  0.00    -0.083 A 
ATOM     10  C   UNL     1      47.290  21.500  20.411  0.00  0.00    -0.019 A 
ATOM     11  C   UNL     1      46.013  21.193  19.976  0.00  0.00    +0.132 A 
ATOM     14  C   UNL     1      45.817  20.105  19.130  0.00  0.00    +0.118 A 
ATOM     17  C   UNL     1      46.900  19.343  18.730  0.00  0.00    -0.011 A 
ATOM     18  C   UNL     1      48.178  19.656  19.167  0.00  0.00    -0.125 A 
ATOM     19  C   UNL     1      49.327  18.805  18.699  0.00  0.00    +0.230 C 
ATOM     20  C   UNL     1      48.917  17.331  18.689  0.00  0.00    +0.062 C 
ATOM     21  C   UNL     1      50.083  16.492  18.157  0.00  0.00    -0.003 C 
ENDROOT
BRANCH   3   2
ATOM      1  C   UNL     1      53.758  16.253  19.287  0.00  0.00    +0.018 C 
ATOM      2  C   UNL     1      52.514  15.980  18.438  0.00  0.00    +0.045 C 
ENDBRANCH   3   2
BRANCH  11  12
ATOM     12  O   UNL     1      44.955  21.949  20.373  0.00  0.00    -0.296 OA
ATOM     13  C   UNL     1      44.693  23.140  19.628  0.00  0.00    +0.253 C 
ENDBRANCH  11  12
BRANCH  14  15
ATOM     15  O   UNL     1      44.566  19.793  18.697  0.00  0.00    -0.295 OA
ATOM     16  C   UNL     1      43.703  19.135  19.626  0.00  0.00    +0.248 C 
ENDBRANCH  14  15
BRANCH  21  22
ATOM     22  C   UNL     1      49.717  15.009  18.221  0.00  0.00    +0.060 C 
BRANCH  22  23
ATOM     23  C   UNL     1      48.913  14.628  16.976  0.00  0.00    +0.181 C 
ATOM     24  C   UNL     1      47.589  14.044  17.398  0.00  0.00    -0.054 A 
ATOM     25  C   UNL     1      46.904  14.654  18.439  0.00  0.00    -0.063 A 
ATOM     26  C   UNL     1      45.683  14.158  18.859  0.00  0.00    +0.102 A 
ATOM     29  C   UNL     1      45.139  13.040  18.231  0.00  0.00    +0.086 A 
ATOM     32  C   UNL     1      45.828  12.435  17.195  0.00  0.00    +0.032 A 
ATOM     33  C   UNL     1      47.053  12.935  16.780  0.00  0.00    -0.083 A 
ATOM     34  C   UNL     1      47.768  12.233  15.654  0.00  0.00    +0.092 C 
ATOM     35  C   UNL     1      48.854  13.143  15.078  0.00  0.00    +0.178 C 
ATOM     36  N   UNL     1      49.675  13.652  16.188  0.00  0.00    -0.676 NA
ATOM     37  H   UNL     1      50.534  14.056  15.848  0.00  0.00    +0.340 HD
BRANCH  26  27
ATOM     27  O   UNL     1      45.015  14.759  19.880  0.00  0.00    -0.304 OA
ATOM     28  C   UNL     1      45.335  16.126  20.147  0.00  0.00    +0.237 C 
ENDBRANCH  26  27
BRANCH  29  30
ATOM     30  O   UNL     1      43.938  12.547  18.634  0.00  0.00    -0.485 OA
ATOM     31  H   UNL     1      43.622  11.800  18.107  0.00  0.00    +0.391 HD
ENDBRANCH  29  30
ENDBRANCH  22  23
ENDBRANCH  21  22
TORSDOF 7
ENDMDL
MODEL 8
REMARK VINA RESULT:      -5.5      2.993      7.997
REMARK  Name = ZINC03871989
REMARK  11 active torsions:
REMARK  status: ('A' for Active; 'I' for Inactive)
REMARK    1  A    between atoms: C1_1  and  C2_2
REMARK    2  A    between atoms: C2_2  and  C3_3
REMARK    3  A    between atoms: C9_11  and  O4_37
REMARK    4  A    between atoms: C10_12  and  O3_35
REMARK    5  A    between atoms: C15_18  and  C16_20
REMARK    6  A    between atoms: C16_20  and  C17_21
REMARK    7  A    between atoms: C20_25  and  O2_33
REMARK    8  A    between atoms: C21_26  and  O1_32
REMARK    9  A    between atoms: O2_33  and  C26_34
REMARK   10  A    between atoms: O3_35  and  C27_36
REMARK   11  A    between atoms: O4_37  and  C28_38
REMARK                            x       y       z     vdW  Elec       q    Type
REMARK                         _______ _______ _______ _____ _____    ______ ____
ROOT
ATOM      3  C   UNL     1      45.527  17.083  21.474  0.00  0.00    -0.007 C 
ATOM      4  C   UNL     1      45.911  18.500  21.908  0.00  0.00    +0.261 C 
ATOM      5  N   UNL     1      46.830  19.079  20.921  0.00  0.00    -0.378 N 
ATOM      6  H   UNL     1      46.397  19.061  20.010  0.00  0.00    +0.422 HD
ATOM      7  C   UNL     1      47.140  20.469  21.279  0.00  0.00    +0.267 C 
ATOM      8  C   UNL     1      47.830  21.137  20.088  0.00  0.00    +0.124 C 
ATOM      9  C   UNL     1      48.972  20.278  19.607  0.00  0.00    -0.083 A 
ATOM     10  C   UNL     1      49.926  20.847  18.778  0.00  0.00    -0.019 A 
ATOM     11  C   UNL     1      50.989  20.091  18.313  0.00  0.00    +0.132 A 
ATOM     14  C   UNL     1      51.096  18.753  18.681  0.00  0.00    +0.118 A 
ATOM     17  C   UNL     1      50.141  18.191  19.510  0.00  0.00    -0.011 A 
ATOM     18  C   UNL     1      49.081  18.953  19.976  0.00  0.00    -0.125 A 
ATOM     19  C   UNL     1      48.072  18.303  20.883  0.00  0.00    +0.230 C 
ATOM     20  C   UNL     1      47.774  16.881  20.402  0.00  0.00    +0.062 C 
ATOM     21  C   UNL     1      46.788  16.222  21.372  0.00  0.00    -0.003 C 
ENDROOT
BRANCH   3   2
ATOM      1  C   UNL     1      43.173  17.055  22.311  0.00  0.00    +0.018 C 
ATOM      2  C   UNL     1      44.575  16.474  22.505  0.00  0.00    +0.045 C 
ENDBRANCH   3   2
BRANCH  11  12
ATOM     12  O   UNL     1      51.922  20.653  17.499  0.00  0.00    -0.296 OA
ATOM     13  C   UNL     1      51.468  21.155  16.241  0.00  0.00    +0.253 C 
ENDBRANCH  11  12
BRANCH  14  15
ATOM     15  O   UNL     1      52.134  18.001  18.228  0.00  0.00    -0.295 OA
ATOM     16  C   UNL     1      51.838  17.014  17.239  0.00  0.00    +0.248 C 
ENDBRANCH  14  15
BRANCH  21  22
ATOM     22  C   UNL     1      46.416  14.831  20.856  0.00  0.00    +0.060 C 
BRANCH  22  23
ATOM     23  C   UNL     1      47.679  14.108  20.381  0.00  0.00    +0.181 C 
ATOM     24  C   UNL     1      47.594  13.884  18.893  0.00  0.00    -0.054 A 
ATOM     25  C   UNL     1      47.111  14.914  18.099  0.00  0.00    -0.063 A 
ATOM     26  C   UNL     1      47.019  14.757  16.728  0.00  0.00    +0.102 A 
ATOM     29  C   UNL     1      47.414  13.557  16.143  0.00  0.00    +0.086 A 
ATOM     32  C   UNL     1      47.893  12.533  16.939  0.00  0.00    +0.032 A 
ATOM     33  C   UNL     1      47.982  12.695  18.314  0.00  0.00    -0.083 A 
ATOM     34  C   UNL     1      48.500  11.545  19.138  0.00  0.00    +0.092 C 
ATOM     35  C   UNL     1      48.907  12.040  20.527  0.00  0.00    +0.178 C 
ATOM     36  N   UNL     1      47.798  12.827  21.086  0.00  0.00    -0.676 NA
ATOM     37  H   UNL     1      47.920  12.971  22.077  0.00  0.00    +0.340 HD
BRANCH  26  27
ATOM     27  O   UNL     1      46.544  15.770  15.954  0.00  0.00    -0.304 OA
ATOM     28  C   UNL     1      46.613  17.089  16.500  0.00  0.00    +0.237 C 
ENDBRANCH  26  27
BRANCH  29  30
ATOM     30  O   UNL     1      47.330  13.394  14.796  0.00  0.00    -0.485 OA
ATOM     31  H   UNL     1      46.562  12.882  14.508  0.00  0.00    +0.391 HD
ENDBRANCH  29  30
ENDBRANCH  22  23
ENDBRANCH  21  22
TORSDOF 7
ENDMDL
MODEL 9
REMARK VINA RESULT:      -5.5      3.553      5.117
REMARK  Name = ZINC03871989
REMARK  11 active torsions:
REMARK  status: ('A' for Active; 'I' for Inactive)
REMARK    1  A    between atoms: C1_1  and  C2_2
REMARK    2  A    between atoms: C2_2  and  C3_3
REMARK    3  A    between atoms: C9_11  and  O4_37
REMARK    4  A    between atoms: C10_12  and  O3_35
REMARK    5  A    between atoms: C15_18  and  C16_20
REMARK    6  A    between atoms: C16_20  and  C17_21
REMARK    7  A    between atoms: C20_25  and  O2_33
REMARK    8  A    between atoms: C21_26  and  O1_32
REMARK    9  A    between atoms: O2_33  and  C26_34
REMARK   10  A    between atoms: O3_35  and  C27_36
REMARK   11  A    between atoms: O4_37  and  C28_38
REMARK                            x       y       z     vdW  Elec       q    Type
REMARK                         _______ _______ _______ _____ _____    ______ ____
ROOT
ATOM      3  C   UNL     1      53.839  14.760  19.564  0.00  0.00    -0.007 C 
ATOM      4  C   UNL     1      53.366  13.304  19.587  0.00  0.00    +0.261 C 
ATOM      5  N   UNL     1      52.150  13.174  18.774  0.00  0.00    -0.378 N 
ATOM      6  H   UNL     1      52.336  13.503  17.839  0.00  0.00    +0.422 HD
ATOM      7  C   UNL     1      51.732  11.767  18.716  0.00  0.00    +0.267 C 
ATOM      8  C   UNL     1      50.670  11.619  17.625  0.00  0.00    +0.124 C 
ATOM      9  C   UNL     1      49.588  12.651  17.817  0.00  0.00    -0.083 A 
ATOM     10  C   UNL     1      48.381  12.476  17.159  0.00  0.00    -0.019 A 
ATOM     11  C   UNL     1      47.363  13.402  17.306  0.00  0.00    +0.132 A 
ATOM     14  C   UNL     1      47.558  14.516  18.118  0.00  0.00    +0.118 A 
ATOM     17  C   UNL     1      48.765  14.686  18.772  0.00  0.00    -0.011 A 
ATOM     18  C   UNL     1      49.780  13.753  18.625  0.00  0.00    -0.125 A 
ATOM     19  C   UNL     1      51.072  13.973  19.364  0.00  0.00    +0.230 C 
ATOM     20  C   UNL     1      51.452  15.454  19.325  0.00  0.00    +0.062 C 
ATOM     21  C   UNL     1      52.739  15.661  20.129  0.00  0.00    -0.003 C 
ENDROOT
BRANCH   3   2
ATOM      1  C   UNL     1      56.319  15.057  19.503  0.00  0.00    +0.018 C 
ATOM      2  C   UNL     1      55.102  14.898  20.416  0.00  0.00    +0.045 C 
ENDBRANCH   3   2
BRANCH  11  12
ATOM     12  O   UNL     1      46.180  13.226  16.660  0.00  0.00    -0.296 OA
ATOM     13  C   UNL     1      45.354  12.147  17.101  0.00  0.00    +0.253 C 
ENDBRANCH  11  12
BRANCH  14  15
ATOM     15  O   UNL     1      46.565  15.434  18.267  0.00  0.00    -0.295 OA
ATOM     16  C   UNL     1      46.620  16.590  17.431  0.00  0.00    +0.248 C 
ENDBRANCH  14  15
BRANCH  21  22
ATOM     22  C   UNL     1      53.176  17.124  20.028  0.00  0.00    +0.060 C 
BRANCH  22  23
ATOM     23  C   UNL     1      51.971  18.034  20.274  0.00  0.00    +0.181 C 
ATOM     24  C   UNL     1      51.875  19.044  19.160  0.00  0.00    -0.054 A 
ATOM     25  C   UNL     1      52.093  18.612  17.859  0.00  0.00    -0.063 A 
ATOM     26  C   UNL     1      52.011  19.501  16.803  0.00  0.00    +0.102 A 
ATOM     29  C   UNL     1      51.707  20.838  17.047  0.00  0.00    +0.086 A 
ATOM     32  C   UNL     1      51.492  21.263  18.346  0.00  0.00    +0.032 A 
ATOM     33  C   UNL     1      51.577  20.368  19.402  0.00  0.00    -0.083 A 
ATOM     34  C   UNL     1      51.345  20.885  20.798  0.00  0.00    +0.092 C 
ATOM     35  C   UNL     1      51.074  19.717  21.748  0.00  0.00    +0.178 C 
ATOM     36  N   UNL     1      52.132  18.711  21.566  0.00  0.00    -0.676 NA
ATOM     37  H   UNL     1      52.133  18.045  22.323  0.00  0.00    +0.340 HD
BRANCH  26  27
ATOM     27  O   UNL     1      52.227  19.072  15.530  0.00  0.00    -0.304 OA
ATOM     28  C   UNL     1      52.264  17.658  15.321  0.00  0.00    +0.237 C 
ENDBRANCH  26  27
BRANCH  29  30
ATOM     30  O   UNL     1      51.621  21.718  16.015  0.00  0.00    -0.485 OA
ATOM     31  H   UNL     1      50.733  21.802  15.643  0.00  0.00    +0.391 HD
ENDBRANCH  29  30
ENDBRANCH  22  23
ENDBRANCH  21  22
TORSDOF 7
ENDMDL
